18   
Iteration 0 Energy -376.53877964
C        0.1591958000   -0.0319490000   -0.0418161000
C       -0.5605356000   -1.1783385000    0.4297433000
C       -1.9793825000   -1.1471775000    0.4510298000
C       -2.6760156000    0.0152758000    0.0090418000
C       -1.9565608000    1.1603481000   -0.4430310000
C       -0.5376083000    1.1522951000   -0.4508327000
C        1.6749999000   -0.0262189000    0.0071130000
N        2.3929894000   -0.9819002000   -0.6822154000
N        2.3395211000    0.9916040000    0.6599869000
H       -0.0158262000   -2.0740846000    0.7865781000
H       -2.5418544000   -2.0272846000    0.8190699000
H       -3.7840539000    0.0315047000    0.0224455000
H       -2.5020403000    2.0615810000   -0.7846953000
H        0.0247085000    2.0379890000   -0.8052157000
H        3.4434685000   -1.0553987000   -0.6366106000
H        1.8746483000   -1.7263811000   -1.2150989000
H        3.3897741000    1.0782534000    0.6690079000
H        1.7854851000    1.6951572000    1.2118968000
18   
Iteration 1 Energy -376.53756963
C        0.1598636284   -0.0473362922   -0.0532518795
C       -0.5664715529   -1.1729282534    0.4570506536
C       -1.9850413652   -1.1330955614    0.4810639280
C       -2.6786630004    0.0200060196    0.0111508766
C       -1.9505278734    1.1482636028   -0.4682383797
C       -0.5316392319    1.1337838434   -0.4800931463
C        1.6749591461   -0.0407795566    0.0136216307
N        2.4053922709   -0.9495577980   -0.7243275998
N        2.3282967231    0.9618723470    0.6999502149
H       -0.0263391343   -2.0606917004    0.8399294656
H       -2.5505635314   -1.9998316466    0.8751562790
H       -3.7865781505    0.0434133157    0.0271691348
H       -2.4910838922    2.0454294260   -0.8278040501
H        0.0340553246    2.0099694988   -0.8524315808
H        3.4567661457   -1.0124643896   -0.6826100889
H        1.8961469884   -1.6721667580   -1.2947553474
H        3.3773121223    1.0622804196    0.7110774279
H        1.7659129334    1.6405543514    1.2740977777
18   
Iteration 2 Energy -376.53687379
C        0.1559392649   -0.0533488102   -0.0591601973
C       -0.5669628948   -1.1673712273    0.4800318825
C       -1.9853744152   -1.1232748887    0.5073928842
C       -2.6724426110    0.0240133439    0.0144618076
C       -1.9494874612    1.1434147889   -0.4924322466
C       -0.5307560996    1.1225785282   -0.5071209133
C        1.6729262977   -0.0437611228    0.0088927958
N        2.4114809646   -0.9201260155   -0.7594934792
N        2.3191850443    0.9358733211    0.7338312489
H       -0.0261886463   -2.0484570549    0.8771956268
H       -2.5533752289   -1.9792422214    0.9210629679
H       -3.7800936806    0.0503239198    0.0339672840
H       -2.4900538780    2.0341966397   -0.8677350368
H        0.0379382867    1.9887327782   -0.8978192157
H        3.4633731182   -0.9777143835   -0.7164943831
H        1.9082747178   -1.6313130195   -1.3497104657
H        3.3679684428    1.0400201537    0.7528694820
H        1.7516289082    1.5890977777    1.3323024816
18   
Iteration 3 Energy -376.53589891
C        0.1548346697   -0.0576500043   -0.0651407890
C       -0.5689790926   -1.1486253680    0.5166220808
C       -1.9877900308   -1.1005369177    0.5474488859
C       -2.6777864393    0.0280389985    0.0186538899
C       -1.9513581989    1.1245782533   -0.5300837927
C       -0.5321921785    1.1023766162   -0.5505186539
C        1.6762913791   -0.0427034296    0.0005609607
N        2.4229695424   -0.8673280767   -0.8152401557
N        2.3158098745    0.8898943116    0.7901621745
H       -0.0286416675   -2.0192233272    0.9366799348
H       -2.5544804170   -1.9412790179    0.9928029772
H       -3.7852100089    0.0577124345    0.0421000442
H       -2.4907341983    2.0037287355   -0.9333653214
H        0.0361167425    1.9539309551   -0.9724567613
H        3.4755213620   -0.9207524148   -0.7712363179
H        1.9259654319   -1.5584328238   -1.4346428734
H        3.3647201299    0.9936128723    0.8247814674
H        1.7424494945    1.5008043411    1.4272387164
18   
Iteration 4 Energy -376.53597774
C        0.1559400559   -0.0483633611   -0.0509697793
C       -0.5632701331   -1.1423968247    0.5281416881
C       -1.9826020463   -1.1007467959    0.5506029384
C       -2.6754753498    0.0219034363    0.0124833141
C       -1.9508444658    1.1179610626   -0.5398296891
C       -0.5312556096    1.1027707713   -0.5546779658
C        1.6784206999   -0.0331548108    0.0075654137
N        2.4044976503   -0.8597011093   -0.8236355279
N        2.3269477455    0.8857950713    0.8053079540
H       -0.0209624138   -2.0093110749    0.9530410931
H       -2.5474840720   -1.9428605078    0.9956689968
H       -3.7831365905    0.0462222617    0.0295086611
H       -2.4923280051    1.9914125672   -0.9524910267
H        0.0354302361    1.9534421093   -0.9804645932
H        3.4568770038   -0.9255225961   -0.7961598711
H        1.8912443851   -1.5383662627   -1.4435570029
H        3.3766747417    0.9801679373    0.8416189200
H        1.7589068544    1.4994898016    1.4444143444
18   
Iteration 5 Energy -376.53602897
C        0.1562999861   -0.0348548085   -0.0308837697
C       -0.5619996963   -1.1281619636    0.5467056544
C       -1.9821390617   -1.0959512747    0.5601995501
C       -2.6779407464    0.0176055391    0.0070423679
C       -1.9572377328    1.1114099592   -0.5542776052
C       -0.5369913300    1.0993847262   -0.5606635797
C        1.6821377862   -0.0264870374    0.0065529572
N        2.4001246630   -0.8446838553   -0.8379911705
N        2.3392978303    0.8661847276    0.8239437393
H       -0.0186767304   -1.9896599042    0.9807520299
H       -2.5443523087   -1.9386857143    1.0075477212
H       -3.7857345014    0.0351810036    0.0169618459
H       -2.5001297291    1.9767514127   -0.9819905043
H        0.0270525107    1.9479353318   -0.9936728854
H        3.4526774284   -0.9156069759   -0.8242388079
H        1.8780384959   -1.5083045217   -1.4667506373
H        3.3900763759    0.9469245228    0.8652932312
H        1.7760860382    1.4804979124    1.4668323490
18   
Iteration 6 Energy -376.53603357
C        0.1532549178   -0.0334392169   -0.0316737986
C       -0.5618596026   -1.1287792315    0.5478013240
C       -1.9818135110   -1.0947149197    0.5613414761
C       -2.6785228468    0.0173796511    0.0072521531
C       -1.9554185628    1.1093683341   -0.5540383413
C       -0.5353525955    1.1031224234   -0.5632716078
C        1.6789491995   -0.0274589069    0.0046340010
N        2.3983951227   -0.8451895354   -0.8392969266
N        2.3377928257    0.8615285029    0.8251186972
H       -0.0178206890   -1.9891957865    0.9834423778
H       -2.5440599597   -1.9368113059    1.0096934245
H       -3.7863414142    0.0354829356    0.0170297609
H       -2.4991365879    1.9738227508   -0.9822769177
H        0.0282793498    1.9520860557   -0.9964272678
H        3.4513716902   -0.9075840682   -0.8192946915
H        1.8812746266   -1.5099727354   -1.4710603133
H        3.3886759722    0.9438223776    0.8627603414
H        1.7757193602    1.4743695479    1.4705417797
18   
Iteration 7 Energy -376.53604501
C        0.1542421549   -0.0359307163   -0.0338772881
C       -0.5622408196   -1.1310807889    0.5452425086
C       -1.9821009172   -1.0962384374    0.5597372071
C       -2.6766344171    0.0176627146    0.0065232998
C       -1.9563572198    1.1119142992   -0.5538248684
C       -0.5363917037    1.1015948624   -0.5614371847
C        1.6794104059   -0.0276870415    0.0068068801
N        2.3972152897   -0.8482431120   -0.8362948364
N        2.3385504620    0.8644816090    0.8246667573
H       -0.0184813840   -1.9917512268    0.9807332119
H       -2.5452745955   -1.9379880085    1.0076373898
H       -3.7844052661    0.0359330631    0.0169372422
H       -2.4996756312    1.9775848108   -0.9802715785
H        0.0279976653    1.9510247547   -0.9925936142
H        3.4501333328   -0.9108967612   -0.8200852553
H        1.8783774642   -1.5132936810   -1.4663218966
H        3.3892065345    0.9512309754    0.8584081769
H        1.7765878982    1.4774132945    1.4700756306
18   
Iteration 8 Energy -376.53604387
C        0.1555566864   -0.0356404678   -0.0333580694
C       -0.5634013457   -1.1293357606    0.5449668582
C       -1.9833878742   -1.0957094300    0.5591533223
C       -2.6799657140    0.0170733517    0.0060875703
C       -1.9565613280    1.1098773123   -0.5532616399
C       -0.5364069944    1.1007944615   -0.5608054274
C        1.6806503693   -0.0276647444    0.0081247886
N        2.3983452301   -0.8487404948   -0.8345713895
N        2.3398988402    0.8640239489    0.8262273753
H       -0.0200515268   -1.9899958517    0.9808474726
H       -2.5456790962   -1.9380743665    1.0070068413
H       -3.7877810494    0.0354977044    0.0158425209
H       -2.4991470950    1.9757495101   -0.9801592207
H        0.0273229480    1.9506534180   -0.9919155654
H        3.4511204357   -0.9147739018   -0.8243209397
H        1.8766680681   -1.5104465133   -1.4656543365
H        3.3905384816    0.9509838167    0.8586096055
H        1.7782544806    1.4790428478    1.4698693765
18   
Iteration 9 Energy -376.53604890
C        0.1540287222   -0.0354628196   -0.0322368931
C       -0.5631503886   -1.1298854139    0.5466994775
C       -1.9830510846   -1.0957566738    0.5602553049
C       -2.6782848729    0.0174636626    0.0062034175
C       -1.9564810128    1.1107585328   -0.5542710340
C       -0.5363766236    1.1010783253   -0.5614601028
C        1.6791917051   -0.0282502601    0.0074694047
N        2.3974101331   -0.8482664941   -0.8355957407
N        2.3386017223    0.8615295637    0.8271147560
H       -0.0194782632   -1.9902681434    0.9827622546
H       -2.5459653667   -1.9377017076    1.0081316583
H       -3.7860812828    0.0357558676    0.0158603875
H       -2.4993571823    1.9761378568   -0.9818316532
H        0.0279993046    1.9502565750   -0.9930808629
H        3.4503607082   -0.9115013187   -0.8233648305
H        1.8774083369   -1.5091497274   -1.4689445712
H        3.3892763348    0.9480448453    0.8592724743
H        1.7771324466    1.4770995915    1.4703905645
18   
Iteration 10 Energy -376.53604917
C        0.1539387504   -0.0358503002   -0.0325876912
C       -0.5637591439   -1.1299351380    0.5465453888
C       -1.9836585605   -1.0954339779    0.5603428910
C       -2.6789283447    0.0177259533    0.0063250430
C       -1.9568313884    1.1107117219   -0.5542378563
C       -0.5367286610    1.1006933906   -0.5615980052
C        1.6791594342   -0.0287402187    0.0072718457
N        2.3968925773   -0.8492711870   -0.8356885262
N        2.3389460801    0.8601359744    0.8277325480
H       -0.0203152109   -1.9904195866    0.9827083982
H       -2.5466673076   -1.9371878899    1.0084488631
H       -3.7867204721    0.0362368499    0.0161562096
H       -2.4995278822    1.9762279795   -0.9817470082
H        0.0276001972    1.9498518463   -0.9933216406
H        3.4499464447   -0.9101040411   -0.8221930229
H        1.8778868944   -1.5097812726   -1.4702574530
H        3.3895187740    0.9481547954    0.8595539611
H        1.7772188637    1.4759305641    1.4705707032
