18   
Iteration 0 Energy -376.53880856
C        0.1534158000    0.0602473000   -0.0469857000
C       -0.5529057000   -0.8516848000   -0.8984408000
C       -1.9710785000   -0.8821555000   -0.8518728000
C       -2.6790224000   -0.0151810000    0.0308448000
C       -1.9711524000    0.8794529000    0.8861636000
C       -0.5526459000    0.9086519000    0.8675147000
C        1.6693748000    0.0313437000   -0.0268418000
N        2.3391617000   -0.2362399000    1.1495836000
N        2.3795034000    0.1719388000   -1.2012087000
H        0.0008124000   -1.5344677000   -1.5719224000
H       -2.5246954000   -1.5883727000   -1.5008828000
H       -3.7866714000   -0.0407498000    0.0566228000
H       -2.5252821000    1.5506881000    1.5708585000
H        0.0008379000    1.6053977000    1.5268055000
H        3.3898385000   -0.2184894000    1.2323317000
H        1.7835360000   -0.3804404000    2.0312455000
H        3.4281526000    0.0810842000   -1.2526663000
H        1.8645936000    0.4054543000   -2.0882742000
18   
Iteration 1 Energy -376.53978647
C        0.1549496440    0.0371562724   -0.0314988361
C       -0.5590990352   -0.8383041302   -0.9141091727
C       -1.9779426467   -0.8598325471   -0.8787591907
C       -2.6828600609   -0.0101624803    0.0228953293
C       -1.9693118771    0.8566771958    0.9019409056
C       -0.5503327399    0.8748424210    0.8930280508
C        1.6713947206    0.0105314228   -0.0216229670
N        2.3518403746   -0.1831668480    1.1630901063
N        2.3733911952    0.1228535574   -1.2040207926
H       -0.0080728573   -1.5050665192   -1.6054403187
H       -2.5333658427   -1.5427264924   -1.5508398216
H       -3.7908416213   -0.0253840553    0.0425038183
H       -2.5211389289    1.5177968502    1.5982101835
H        0.0045938140    1.5540460409    1.5691270473
H        3.4029293617   -0.1407864928    1.2298250221
H        1.8072368976   -0.2897004581    2.0569618039
H        3.4230771202    0.0487127453   -1.2603936377
H        1.8492785600    0.3174692311   -2.0950445478
18   
Iteration 2 Energy -376.54036057
C        0.1544587326    0.0297825438   -0.0282170655
C       -0.5565739275   -0.8258333861   -0.9330201986
C       -1.9750459958   -0.8399019650   -0.8962506153
C       -2.6796102053   -0.0070255464    0.0218419649
C       -1.9697485680    0.8412204779    0.9217491262
C       -0.5510973778    0.8517773997    0.9112580209
C        1.6687572517    0.0108663757   -0.0215242855
N        2.3533595481   -0.1369942504    1.1676529171
N        2.3677236240    0.0842892283   -1.2090014896
H       -0.0070181699   -1.4823117151   -1.6354699442
H       -2.5329792740   -1.5064084740   -1.5824727993
H       -3.7877011116   -0.0206455192    0.0380284394
H       -2.5207660997    1.4905521953    1.6297612201
H        0.0052715604    1.5166046212    1.6003521272
H        3.4036808307   -0.0875174308    1.2370775922
H        1.8091129884   -0.2252082704    2.0634000491
H        3.4173974894    0.0104807464   -1.2610494408
H        1.8426760585    0.2405826550   -2.1067295414
18   
Iteration 3 Energy -376.54109667
C        0.1553971033    0.0247270079   -0.0196778554
C       -0.5588959222   -0.7971506151   -0.9539933757
C       -1.9771024634   -0.8118541909   -0.9272283168
C       -2.6804305925   -0.0056728023    0.0159286611
C       -1.9654890470    0.8090709303    0.9433698333
C       -0.5471787651    0.8215613172    0.9440990619
C        1.6663652076    0.0118033284   -0.0194141699
N        2.3575266286   -0.0659960575    1.1730815345
N        2.3595226026    0.0220594252   -1.2131576620
H       -0.0091416525   -1.4369504305   -1.6714841267
H       -2.5341372591   -1.4545913083   -1.6365253508
H       -3.7887430735   -0.0141176634    0.0298263557
H       -2.5177390164    1.4381034635    1.6684181799
H        0.0066699132    1.4661286586    1.6543748828
H        3.4074001995   -0.0077384744    1.2351258083
H        1.8188565889   -0.1229395810    2.0742113487
H        3.4084982546   -0.0562336655   -1.2642892296
H        1.8310441137    0.1244634350   -2.1161514335
18   
Iteration 4 Energy -376.54111211
C        0.1590042637    0.0322596461   -0.0265434384
C       -0.5613104691   -0.7882996128   -0.9580846426
C       -1.9793367853   -0.8051794989   -0.9276467947
C       -2.6869802307   -0.0058065014    0.0181718368
C       -1.9748477820    0.8062879926    0.9496126798
C       -0.5565766768    0.8165163220    0.9393881426
C        1.6693664771    0.0183952363   -0.0197722929
N        2.3616790875   -0.0565196880    1.1725729991
N        2.3685086710    0.0122480693   -1.2105082001
H       -0.0146740392   -1.4298458279   -1.6763367074
H       -2.5354157381   -1.4477838655   -1.6378133824
H       -3.7952678234   -0.0188606313    0.0323284556
H       -2.5254889678    1.4302338240    1.6804086534
H       -0.0051272634    1.4601045592    1.6521610567
H        3.4122165106   -0.0033756191    1.2240220472
H        1.8284069161   -0.1127914706    2.0767468810
H        3.4167175181   -0.0756280385   -1.2587892704
H        1.8445374111    0.1132188778   -2.1160606629
18   
Iteration 5 Energy -376.54114924
C        0.1550959484    0.0341596442   -0.0288947186
C       -0.5605267832   -0.7898076467   -0.9616124653
C       -1.9782225259   -0.8070160397   -0.9275867014
C       -2.6832833596   -0.0074127598    0.0197779109
C       -1.9712432787    0.8061582986    0.9500184081
C       -0.5532554752    0.8209869473    0.9407104799
C        1.6651065934    0.0164070474   -0.0216260766
N        2.3554291761   -0.0572568203    1.1722286231
N        2.3671033580    0.0112518963   -1.2109970958
H       -0.0133273615   -1.4307812754   -1.6801180504
H       -2.5356901584   -1.4501850515   -1.6361315228
H       -3.7915177348   -0.0214656411    0.0359702075
H       -2.5228582428    1.4287264460    1.6811790682
H       -0.0004927208    1.4663447619    1.6510760583
H        3.4060818368   -0.0070398337    1.2249935156
H        1.8209246440   -0.1104849049    2.0759017094
H        3.4153925482   -0.0777526628   -1.2564177594
H        1.8464295759    0.1206041799   -2.1175682868
18   
Iteration 6 Energy -376.54115057
C        0.1554718264    0.0365699699   -0.0305989945
C       -0.5621349438   -0.7877079110   -0.9613730980
C       -1.9799249047   -0.8079587888   -0.9273632352
C       -2.6838802837   -0.0091682887    0.0214437106
C       -1.9702746855    0.8051112762    0.9500529143
C       -0.5522732160    0.8223774190    0.9399506146
C        1.6653242342    0.0168011800   -0.0244708916
N        2.3544507102   -0.0560377159    1.1703553855
N        2.3677651101    0.0095034780   -1.2136536169
H       -0.0148406530   -1.4270386909   -1.6811935434
H       -2.5371564059   -1.4516256520   -1.6356717558
H       -3.7920706069   -0.0241192028    0.0397540933
H       -2.5216395347    1.4268978281    1.6820562203
H        0.0005589871    1.4690539931    1.6490448446
H        3.4047454749   -0.0102041053    1.2332993437
H        1.8151562780   -0.1094770767    2.0711227043
H        3.4162048946   -0.0795692224   -1.2550502831
H        1.8497428828    0.1225137997   -2.1213455630
18   
Iteration 7 Energy -376.54115558
C        0.1552085743    0.0375827765   -0.0311975538
C       -0.5618107784   -0.7870043831   -0.9620867427
C       -1.9796074325   -0.8071596700   -0.9271812376
C       -2.6846015864   -0.0093001389    0.0216921026
C       -1.9710470579    0.8050432255    0.9503185947
C       -0.5530675775    0.8224928640    0.9397011974
C        1.6648914895    0.0174579597   -0.0243986374
N        2.3533745826   -0.0550758454    1.1707454361
N        2.3678580641    0.0076099236   -1.2132504762
H       -0.0144017782   -1.4257763513   -1.6823248510
H       -2.5366690785   -1.4508017002   -1.6356237985
H       -3.7927957751   -0.0249099814    0.0400215150
H       -2.5223884272    1.4264931620    1.6826294591
H       -0.0003561094    1.4693833243    1.6486926343
H        3.4039811188   -0.0102479405    1.2286708379
H        1.8160594978   -0.1094872094    2.0726696314
H        3.4162524979   -0.0813217141   -1.2555655481
H        1.8499174787    0.1213769807   -2.1208687172
18   
Iteration 8 Energy -376.54115593
C        0.1541917228    0.0383964149   -0.0314905307
C       -0.5624116822   -0.7866697470   -0.9624152900
C       -1.9801702451   -0.8074947313   -0.9280199579
C       -2.6841635783   -0.0092551738    0.0212471821
C       -1.9720679480    0.8059043372    0.9503088345
C       -0.5541510187    0.8233163300    0.9394354246
C        1.6639234131    0.0174197983   -0.0238296174
N        2.3540968942   -0.0545981680    1.1703192237
N        2.3664711878    0.0057694757   -1.2128442103
H       -0.0145672872   -1.4251068774   -1.6826045083
H       -2.5372822912   -1.4513126834   -1.6362880667
H       -3.7923355424   -0.0251410196    0.0395660765
H       -2.5238827269    1.4272583835    1.6823645022
H       -0.0014249991    1.4705405738    1.6481139813
H        3.4049695058   -0.0118136039    1.2249206836
H        1.8187871562   -0.1103127971    2.0733444546
H        3.4149213884   -0.0819210002   -1.2564995005
H        1.8481423082    0.1221912350   -2.1198937900
