18   
Iteration 0 Energy -376.54167740
C        0.1685427000    0.0023420000    0.0161869000
C       -0.5567976000   -1.2314427000    0.1649521000
C       -1.9736849000   -1.2253559000    0.1625326000
C       -2.6845744000    0.0004802000   -0.0011706000
C       -1.9729837000    1.2261399000   -0.1623903000
C       -0.5560593000    1.2334814000   -0.1563369000
C        1.6756099000    0.0010953000   -0.0037768000
N        2.3857804000   -1.1721238000   -0.1898851000
N        2.3912819000    1.1670652000    0.2025588000
H       -0.0240933000   -2.1885505000    0.3260066000
H       -2.5265592000   -2.1760859000    0.2924792000
H       -3.7932396000    0.0001737000   -0.0055400000
H       -2.5254706000    2.1757142000   -0.3019545000
H       -0.0226911000    2.1899462000   -0.3193844000
H        3.4376075000   -1.1943977000   -0.1919636000
H        1.8845569000   -2.0518649000   -0.4670277000
H        3.4425921000    1.1916619000    0.1758340000
H        1.8926452000    2.0529019000    0.4640414000
18   
Iteration 1 Energy -376.54114581
C        0.1689731561    0.0040724068    0.0270539330
C       -0.5551968153   -1.2346096229    0.1351829128
C       -1.9720807509   -1.2275826204    0.1322467501
C       -2.6850812969    0.0009335367    0.0007866517
C       -1.9745654580    1.2305551371   -0.1317347541
C       -0.5576499071    1.2368807768   -0.1248191301
C        1.6755592499    0.0028491604   -0.0162402127
N        2.3849014650   -1.1790781875   -0.1399372106
N        2.3927481820    1.1741681205    0.1505108979
H       -0.0223366365   -2.1961745848    0.2666816612
H       -2.5243809507   -2.1819264995    0.2351375608
H       -3.7937472454   -0.0006303239   -0.0042385049
H       -2.5271728698    2.1828176081   -0.2511013682
H       -0.0247478279    2.1965134320   -0.2696683166
H        3.4367548534   -1.2012200518   -0.1405471097
H        1.8834628773   -2.0721968279   -0.3699731972
H        3.4441040103    1.1973782260    0.1239444394
H        1.8947533997    2.0687213556    0.3818090024
18   
Iteration 2 Energy -376.54084855
C        0.1689674972   -0.0001422420    0.0339436531
C       -0.5655381704   -1.2359440213    0.1124677534
C       -1.9822127113   -1.2299709698    0.1071065489
C       -2.6900851011    0.0037056374    0.0007094972
C       -1.9740049642    1.2326377756   -0.1048441380
C       -0.5572305352    1.2359172648   -0.0972849565
C        1.6769084638   -0.0042817378   -0.0138499960
N        2.4008027691   -1.1812981141   -0.0956462319
N        2.3908706498    1.1749294506    0.1064493768
H       -0.0395896848   -2.2037038876    0.2228640300
H       -2.5362571660   -2.1855843190    0.1867447145
H       -3.7987398816    0.0065623422   -0.0065306057
H       -2.5232989633    2.1890318893   -0.2047505732
H       -0.0250593755    2.1989984675   -0.2196675421
H        3.4527765000   -1.1848577591   -0.1043410453
H        1.9133511119   -2.0893078304   -0.2937697747
H        3.4421012002    1.1969078969    0.0786352267
H        1.8923562441    2.0785111009    0.2966557387
18   
Iteration 3 Energy -376.54052479
C        0.1688562071   -0.0008243438    0.0404940700
C       -0.5662630732   -1.2393637499    0.0739750186
C       -1.9825302292   -1.2324441659    0.0642250279
C       -2.6921440055    0.0029152054   -0.0013963146
C       -1.9762819703    1.2347331484   -0.0627612908
C       -0.5599189253    1.2385082477   -0.0542483668
C        1.6778503068   -0.0028992613   -0.0074416665
N        2.4010717345   -1.1836377163   -0.0207760530
N        2.3968930656    1.1794915307    0.0368397764
H       -0.0447059229   -2.2128812093    0.1486202831
H       -2.5357753396   -2.1908726484    0.1060647504
H       -3.8008094534    0.0050805117   -0.0117233646
H       -2.5255236416    2.1940289751   -0.1294276536
H       -0.0336090409    2.2089506853   -0.1361861104
H        3.4526165844   -1.1848246895   -0.0461306092
H        1.9154168301   -2.1028616958   -0.1618091209
H        3.4481031185    1.1921340387    0.0109370980
H        1.9048601939    2.0981858097    0.1549134839
18   
Iteration 4 Energy -376.54061717
C        0.1676616855    0.0033390882    0.0279411481
C       -0.5542970845   -1.2417664458    0.0617606571
C       -1.9707655722   -1.2335788915    0.0530615815
C       -2.6855842037   -0.0004471346   -0.0036434774
C       -1.9773350139    1.2364795375   -0.0545027407
C       -0.5608757913    1.2435082314   -0.0468962701
C        1.6754753670    0.0045959900   -0.0043439651
N        2.3841458726   -1.1852103604   -0.0019551791
N        2.4001229714    1.1837063942    0.0217075237
H       -0.0269344787   -2.2132831289    0.1248875445
H       -2.5219404074   -2.1933616003    0.0889606104
H       -3.7942513470   -0.0034991021   -0.0118100530
H       -2.5305677800    2.1943088844   -0.1082605655
H       -0.0366172222    2.2165970281   -0.1086832077
H        3.4352882791   -1.2112884454   -0.0337883052
H        1.8811927877   -2.0988618144   -0.1181150170
H        3.4515958421    1.1957657266    0.0060338182
H        1.9097747683    2.1066597963    0.1111280944
18   
Iteration 5 Energy -376.54078589
C        0.1689608134    0.0013659283    0.0076706154
C       -0.5620291095   -1.2377590732    0.0417107722
C       -1.9790608694   -1.2329074459    0.0361956575
C       -2.6921716495    0.0016147618   -0.0045225530
C       -1.9787496157    1.2363032175   -0.0377439688
C       -0.5617704537    1.2403846114   -0.0328175524
C        1.6774708031   -0.0011995527    0.0015449160
N        2.3990131106   -1.1829793345    0.0281882798
N        2.3984742687    1.1789730137   -0.0071154969
H       -0.0384828131   -2.2123221608    0.0836010303
H       -2.5298798707   -2.1932568585    0.0626005229
H       -3.8008484250    0.0015927820   -0.0086001706
H       -2.5291384395    2.1967517972   -0.0691546589
H       -0.0383018137    2.2153979680   -0.0614584928
H        3.4498748930   -1.2007015123   -0.0186433933
H        1.9040200786   -2.1053995668   -0.0433954764
H        3.4500963278    1.1931463516   -0.0055266340
H        1.9051532752    2.1041405613    0.0296987597
18   
Iteration 6 Energy -376.54079168
C        0.1680097248    0.0012283943    0.0035049966
C       -0.5634415510   -1.2389773103    0.0351241984
C       -1.9800468015   -1.2347414706    0.0321799244
C       -2.6911898839    0.0007546513   -0.0029129853
C       -1.9774897160    1.2350853659   -0.0332662510
C       -0.5609165090    1.2424202407   -0.0304561214
C        1.6775119449   -0.0004225637    0.0034646553
N        2.3950863021   -1.1839581131    0.0335617892
N        2.3999598212    1.1796869894   -0.0123787696
H       -0.0411318221   -2.2144393307    0.0677413844
H       -2.5312024364   -2.1949373125    0.0572889628
H       -3.7998809108    0.0017033754   -0.0054235642
H       -2.5285161234    2.1952792359   -0.0597303727
H       -0.0384749522    2.2181580659   -0.0558011945
H        3.4457215502   -1.1853085171   -0.0145145291
H        1.9057909207   -2.1102804928   -0.0216987694
H        3.4514849388    1.1842369501   -0.0026905629
H        1.9114384128    2.1076434774    0.0077586979
18   
Iteration 7 Energy -376.54082394
C        0.1682668612   -0.0013890051    0.0034151565
C       -0.5634042752   -1.2418145402    0.0333283756
C       -1.9798199175   -1.2326813010    0.0320094080
C       -2.6914284243    0.0026673334   -0.0009688686
C       -1.9779389275    1.2368602778   -0.0321631996
C       -0.5614951759    1.2399255021   -0.0306681874
C        1.6782142894   -0.0016593544    0.0024398308
N        2.3995868023   -1.1828301070    0.0300020850
N        2.3984064643    1.1803209198   -0.0121426113
H       -0.0429634669   -2.2183694422    0.0626329370
H       -2.5323355609   -2.1920519864    0.0573617256
H       -3.8001308087    0.0036296367   -0.0025218402
H       -2.5276764932    2.1978220858   -0.0584176615
H       -0.0379554387    2.2149458817   -0.0588148449
H        3.4503913804   -1.1917404956   -0.0109293733
H        1.9082420434   -2.1082366681   -0.0176406137
H        3.4498361938    1.1917494757   -0.0007263241
H        1.9056394682    2.1058790470    0.0054524587
18   
Iteration 8 Energy -376.54082806
C        0.1696574959    0.0022261241    0.0021470581
C       -0.5627748243   -1.2373260958    0.0301429912
C       -1.9793273093   -1.2353250024    0.0302062590
C       -2.6912992261   -0.0000803147    0.0004085173
C       -1.9775418931    1.2342110856   -0.0303246433
C       -0.5609382096    1.2427355107   -0.0300282775
C        1.6792955825    0.0011499938    0.0006871353
N        2.3964235508   -1.1824268885    0.0260267796
N        2.4021696278    1.1814173568   -0.0129060204
H       -0.0396252544   -2.2125868235    0.0555694318
H       -2.5294956614   -2.1961297669    0.0542157969
H       -3.7999938608    0.0005177876   -0.0001008193
H       -2.5290717468    2.1941549015   -0.0552878340
H       -0.0393173208    2.2187515327   -0.0586415372
H        3.4473926867   -1.2054821924   -0.0035655356
H        1.8968406298   -2.1040344293   -0.0072469136
H        3.4535821723    1.1944099924    0.0002285931
H        1.9093317780    2.1070086702    0.0000710973
18   
Iteration 9 Energy -376.54085013
C        0.1692430494    0.0002357997    0.0004164306
C       -0.5622044169   -1.2393928519    0.0269950756
C       -1.9788737064   -1.2334880698    0.0278738326
C       -2.6912949145    0.0017555294    0.0013806227
C       -1.9777859513    1.2362492747   -0.0275927827
C       -0.5610621890    1.2407589930   -0.0281246094
C        1.6785940314   -0.0006252029   -0.0004395168
N        2.3981686707   -1.1824437484    0.0240790538
N        2.3996573447    1.1803271730   -0.0160323087
H       -0.0397957142   -2.2152622561    0.0487740728
H       -2.5301237341   -2.1936948068    0.0498917414
H       -3.7999816509    0.0022438195    0.0019034090
H       -2.5281729418    2.1969407875   -0.0500872127
H       -0.0378754802    2.2159855967   -0.0543737837
H        3.4494603237   -1.1981621711    0.0025023864
H        1.9026134622   -2.1066991855    0.0061601468
H        3.4510694478    1.1924403985   -0.0019648157
H        1.9062860906    2.1058296811   -0.0099160663
18   
Iteration 10 Energy -376.54085855
C        0.1687330335   -0.0007788287   -0.0007461018
C       -0.5625074655   -1.2409645189    0.0228885053
C       -1.9791089556   -1.2332495522    0.0241732925
C       -2.6905250978    0.0025120675    0.0015698980
C       -1.9768485437    1.2369060291   -0.0235162887
C       -0.5602567902    1.2407886305   -0.0246275359
C        1.6784116770   -0.0018020796   -0.0007647167
N        2.3992391253   -1.1827925020    0.0217060225
N        2.3987923555    1.1796116548   -0.0205222057
H       -0.0411080326   -2.2173859573    0.0404688125
H       -2.5312835473   -2.1929761841    0.0431002766
H       -3.7992148389    0.0035396253    0.0026596361
H       -2.5268756085    2.1978791117   -0.0422516925
H       -0.0365404051    2.2158831128   -0.0463356488
H        3.4506618569   -1.1929677841    0.0122536129
H        1.9068094778   -2.1087164781    0.0242523805
H        3.4501842967    1.1925851832   -0.0085885778
H        1.9048864506    2.1047865512   -0.0243280413
18   
Iteration 11 Energy -376.54085930
C        0.1700271576    0.0001389718   -0.0008617158
C       -0.5615379489   -1.2398690798    0.0203831453
C       -1.9782087319   -1.2330021909    0.0211050224
C       -2.6912032537    0.0018506589    0.0007247010
C       -1.9780134286    1.2365561396   -0.0208685793
C       -0.5613799554    1.2403240004   -0.0216354158
C        1.6798575405   -0.0003783482   -0.0006131739
N        2.3983471074   -1.1828440655    0.0198705784
N        2.4013219071    1.1803446925   -0.0231571757
H       -0.0398839651   -2.2161481345    0.0360396556
H       -2.5295289473   -2.1932635564    0.0374903982
H       -3.7998980993    0.0020127383    0.0015238004
H       -2.5282734447    2.1974494964   -0.0370636186
H       -0.0387565271    2.2160510839   -0.0391719981
H        3.4497744424   -1.1944833142    0.0199116993
H        1.9044671853   -2.1078458538    0.0364488403
H        3.4527812706    1.1893527013   -0.0151394797
H        1.9098133741    2.1067342067   -0.0335633022
