18   
Iteration 0 Energy -376.54167224
C        0.1669419000    0.0025491000   -0.0156831000
C       -0.5576553000   -1.2362127000   -0.1203595000
C       -1.9745784000   -1.2313134000   -0.1186524000
C       -2.6865963000   -0.0011035000    0.0010728000
C       -1.9753907000    1.2297221000    0.1188233000
C       -0.5584701000    1.2385157000    0.1128322000
C        1.6740630000    0.0027074000    0.0049002000
N        2.3835493000   -1.1632772000    0.2333558000
N        2.3895935000    1.1607705000   -0.2425696000
H       -0.0240672000   -2.1980627000   -0.2462854000
H       -2.5265738000   -2.1865504000   -0.2148910000
H       -3.7952698000   -0.0019365000    0.0051568000
H       -2.5286081000    2.1832393000    0.2243850000
H       -0.0258719000    2.2006176000    0.2417565000
H        3.4351171000   -1.1931173000    0.2290071000
H        1.8789762000   -2.0344714000    0.5303194000
H        3.4407410000    1.1895269000   -0.2142183000
H        1.8894306000    2.0377393000   -0.5295748000
18   
Iteration 1 Energy -376.54114167
C        0.1664628928    0.0014822276   -0.0270374640
C       -0.5580974948   -1.2400624329   -0.0910878593
C       -1.9749475441   -1.2318615088   -0.0885434006
C       -2.6869950006    0.0011334813   -0.0009862892
C       -1.9774574941    1.2351843166    0.0879229892
C       -0.5605584002    1.2387330619    0.0809330390
C        1.6732819934    0.0022009051    0.0169767617
N        2.3856121526   -1.1723854687    0.1830687929
N        2.3886819680    1.1680139705   -0.1901392257
H       -0.0260987337   -2.2061918156   -0.1881625475
H       -2.5279021441   -2.1888860708   -0.1574991531
H       -3.7956422536   -0.0001576471    0.0038820228
H       -2.5295965208    2.1913953341    0.1732905802
H       -0.0271251445    2.2025968901    0.1915874985
H        3.4375300760   -1.1856456631    0.1775220754
H        1.8892809849   -2.0620647234    0.4361117474
H        3.4399454295    1.1906220595   -0.1608418865
H        1.8907307200    2.0554265162   -0.4475588961
18   
Iteration 2 Energy -376.54085411
C        0.1671447013    0.0006790010   -0.0335988882
C       -0.5656534863   -1.2380904294   -0.0683520160
C       -1.9823375865   -1.2342857973   -0.0631867688
C       -2.6926570883    0.0009273063   -0.0005505032
C       -1.9759408373    1.2324974081    0.0615321463
C       -0.5591527076    1.2404870764    0.0540917464
C        1.6749762539   -0.0011987438    0.0145571524
N        2.3955572362   -1.1764043003    0.1382532215
N        2.3907069128    1.1720278595   -0.1470952337
H       -0.0382519857   -2.2084306238   -0.1442974396
H       -2.5346833097   -2.1930871515   -0.1088602075
H       -3.8013385494    0.0030972135    0.0066318024
H       -2.5266276812    2.1909739137    0.1276812741
H       -0.0288630509    2.2083351730    0.1426657452
H        3.4474723879   -1.1862036996    0.1420152285
H        1.9040665620   -2.0764679978    0.3608896145
H        3.4418399397    1.1958683925   -0.1175519804
H        1.8924554624    2.0693850285   -0.3651545438
18   
Iteration 3 Energy -376.54054294
C        0.1672747132   -0.0008567995   -0.0399027003
C       -0.5666234351   -1.2404625317   -0.0291962067
C       -1.9828895999   -1.2352606104   -0.0191994686
C       -2.6942546263    0.0006543393    0.0020100322
C       -1.9790264907    1.2342782679    0.0184714870
C       -0.5626567534    1.2404885287    0.0098488399
C        1.6762900493   -0.0003393442    0.0062945528
N        2.3980265290   -1.1809175613    0.0599974450
N        2.3968127452    1.1792974275   -0.0755813624
H       -0.0442504227   -2.2156198749   -0.0689132062
H       -2.5347702285   -2.1953541401   -0.0259413464
H       -3.8029279298    0.0020674899    0.0125373642
H       -2.5294082967    2.1946964427    0.0502073217
H       -0.0383194610    2.2143481049    0.0558067140
H        3.4494994770   -1.1940672647    0.0838420770
H        1.9062746120   -2.0922290239    0.2278511624
H        3.4479024363    1.1971998782   -0.0482707440
H        1.9034817980    2.0934715811   -0.2195438819
18   
Iteration 4 Energy -376.54062643
C        0.1645557810   -0.0010042670   -0.0273909326
C       -0.5585567180   -1.2458733347   -0.0180987063
C       -1.9750054298   -1.2344702185   -0.0096744581
C       -2.6877379033    0.0011504623    0.0036821702
C       -1.9801121053    1.2393801310    0.0108809311
C       -0.5636526995    1.2412290406    0.0031231013
C        1.6725438298    0.0017328271    0.0039913261
N        2.3863599457   -1.1841091877    0.0420827030
N        2.3938021127    1.1811662838   -0.0609678917
H       -0.0331825990   -2.2200829457   -0.0470590249
H       -2.5278731660   -2.1939564287   -0.0118722714
H       -3.7963823556   -0.0008227586    0.0118028467
H       -2.5319118675    2.1993837382    0.0305381076
H       -0.0376716916    2.2149805207    0.0297722741
H        3.4377043123   -1.1860456247    0.0758598894
H        1.8953982372   -2.1002584501    0.1867685911
H        3.4452707758    1.1870434929   -0.0444426336
H        1.9051165543    2.1020186230   -0.1780617525
18   
Iteration 5 Energy -376.54078189
C        0.1664342702    0.0002770063   -0.0085864187
C       -0.5655695629   -1.2388744998   -0.0004632560
C       -1.9826039675   -1.2343615677    0.0046139269
C       -2.6949861279    0.0011627566    0.0042270136
C       -1.9802411236    1.2355132959   -0.0030507162
C       -0.5632764602    1.2404848640   -0.0082254176
C        1.6749713804   -0.0023052255    0.0003986643
N        2.3974754781   -1.1834399244    0.0165761829
N        2.3942913860    1.1782606568   -0.0363643555
H       -0.0419998717   -2.2142299639   -0.0101787808
H       -2.5335764936   -2.1949865349    0.0096684873
H       -3.8036724943    0.0020742859    0.0081909653
H       -2.5304491903    2.1965592627   -0.0028435733
H       -0.0390950338    2.2155880834   -0.0101816638
H        3.4484737260   -1.1823641169    0.0627943267
H        1.9102988785   -2.1069197889    0.1217068602
H        3.4459548844    1.1862021894   -0.0372418080
H        1.9029434647    2.1024644778   -0.1089433508
18   
Iteration 6 Energy -376.54078580
C        0.1670032680    0.0025867263   -0.0017105479
C       -0.5614616027   -1.2394814763    0.0098088895
C       -1.9781029631   -1.2355219764    0.0120054578
C       -2.6917954236   -0.0009521232    0.0031765673
C       -1.9815454162    1.2356349069   -0.0100218107
C       -0.5649713591    1.2424542212   -0.0127769752
C        1.6763725343    0.0024060780   -0.0024868771
N        2.3926864024   -1.1825357367    0.0077753571
N        2.3997985035    1.1818565123   -0.0273456687
H       -0.0371436873   -2.2144133298    0.0127566156
H       -2.5280736588   -2.1966691584    0.0204742090
H       -3.8004774798   -0.0024011504    0.0052074238
H       -2.5338797173    2.1954368287   -0.0181406160
H       -0.0437085811    2.2190189113   -0.0229113213
H        3.4431779804   -1.2119615706    0.0513798959
H        1.8896629247   -2.0993509194    0.0894827901
H        3.4512391333    1.1997151184   -0.0375937291
H        1.9054867990    2.1054938423   -0.0764803015
18   
Iteration 7 Energy -376.54082690
C        0.1663474023   -0.0005477590   -0.0030337912
C       -0.5648231345   -1.2414457517    0.0100009232
C       -1.9812896208   -1.2342458039    0.0111947028
C       -2.6937658032    0.0009985390    0.0013676190
C       -1.9805231130    1.2357411988   -0.0105489680
C       -0.5640363669    1.2406786250   -0.0122830026
C        1.6762451266   -0.0006892665   -0.0022357368
N        2.3975299982   -1.1822042595    0.0109229658
N        2.3967073582    1.1808051818   -0.0281145127
H       -0.0434207965   -2.2179333023    0.0144991566
H       -2.5328458170   -2.1944739624    0.0194072408
H       -3.8024677143    0.0014487628    0.0029978490
H       -2.5310237194    2.1965893078   -0.0178238509
H       -0.0414545242    2.2165985519   -0.0187390971
H        3.4483658853   -1.1938491231    0.0510877535
H        1.9043652548   -2.1045315012    0.0893885276
H        3.4481527574    1.1930340384   -0.0388118671
H        1.9035455197    2.1050645732   -0.0765563342
18   
Iteration 8 Energy -376.54083434
C        0.1669472034    0.0011476532   -0.0022474030
C       -0.5646110855   -1.2390485637    0.0120565897
C       -1.9812024945   -1.2361539048    0.0126251928
C       -2.6929214024   -0.0004133083    0.0004783421
C       -1.9802561121    1.2348399978   -0.0118902621
C       -0.5636256483    1.2418984404   -0.0129599001
C        1.6764738389    0.0007480161   -0.0011048862
N        2.3940646853   -1.1826762513    0.0136113018
N        2.3984645270    1.1811647407   -0.0272962291
H       -0.0415705528   -2.2147007783    0.0190853881
H       -2.5317194832   -2.1970116233    0.0220602959
H       -3.8016032055   -0.0000928660    0.0013764200
H       -2.5317126167    2.1951355510   -0.0200750693
H       -0.0416020476    2.2181072177   -0.0192893350
H        3.4451428943   -1.1927116825    0.0466119626
H        1.9001117678   -2.1055542698    0.0812075210
H        3.4499250271    1.1896818611   -0.0392229114
H        1.9072513054    2.1067272739   -0.0722249574
18   
Iteration 9 Energy -376.54084906
C        0.1670357018   -0.0010825517   -0.0000397085
C       -0.5644531071   -1.2405346189    0.0167353061
C       -1.9812305446   -1.2338655378    0.0156218691
C       -2.6937900735    0.0015563866   -0.0016009879
C       -1.9798196427    1.2360853386   -0.0158273028
C       -0.5629785631    1.2395986928   -0.0152157682
C        1.6761167338   -0.0014618222    0.0012631410
N        2.3973112632   -1.1822297102    0.0184631655
N        2.3955965069    1.1801081335   -0.0235536308
H       -0.0423183313   -2.2167544524    0.0293129032
H       -2.5327433432   -2.1940939999    0.0277200179
H       -3.8024784223    0.0021663656   -0.0024224182
H       -2.5297371967    2.1972453271   -0.0270666505
H       -0.0391164227    2.2147912884   -0.0231640689
H        3.4487501893   -1.1876616876    0.0369193125
H        1.9066599016   -2.1083007611    0.0625478863
H        3.4470239611    1.1902641128   -0.0371145910
H        1.9021584762    2.1050072433   -0.0595463054
18   
Iteration 10 Energy -376.54085772
C        0.1664707983   -0.0005522792    0.0006985741
C       -0.5641879710   -1.2410960786    0.0199214489
C       -1.9808045555   -1.2343644147    0.0185416287
C       -2.6926923762    0.0011801059   -0.0013888952
C       -1.9789972043    1.2357280897   -0.0188248635
C       -0.5623891358    1.2411604260   -0.0179345184
C        1.6760570960   -0.0012144450    0.0011041866
N        2.3975768431   -1.1818344161    0.0197694884
N        2.3958552891    1.1804456661   -0.0202259948
H       -0.0422108980   -2.2172602177    0.0356215931
H       -2.5324963078   -2.1944491350    0.0328318267
H       -3.8013871726    0.0018987323   -0.0024611578
H       -2.5295143526    2.1964864437   -0.0330085467
H       -0.0390884458    2.2166654635   -0.0295669602
H        3.4490134076   -1.1909741467    0.0294492977
H        1.9056685640   -2.1075948636    0.0491300203
H        3.4472745189    1.1911156818   -0.0320371196
H        1.9025195499    2.1055329753   -0.0485539029
18   
Iteration 11 Energy -376.54085811
C        0.1682696181    0.0001942535    0.0009593365
C       -0.5633467489   -1.2402196575    0.0233666267
C       -1.9799149413   -1.2339729122    0.0225328880
C       -2.6929764410    0.0006582294   -0.0001014259
C       -1.9808687195    1.2358693275   -0.0223413629
C       -0.5643849428    1.2399556760   -0.0218393589
C        1.6785861815    0.0003314476    0.0003379392
N        2.3973741341   -1.1820668420    0.0211168385
N        2.4002306044    1.1813100411   -0.0165667079
H       -0.0417940588   -2.2164131505    0.0419178708
H       -2.5309603412   -2.1943763736    0.0398200796
H       -3.8016695084    0.0003019111   -0.0007142492
H       -2.5316045842    2.1964692924   -0.0401608345
H       -0.0426500543    2.2161401356   -0.0393144782
H        3.4487231625   -1.1966137652    0.0199911154
H        1.9024435433   -2.1064359515    0.0333504633
H        3.4516598884    1.1930973159   -0.0235847381
H        1.9076189093    2.1068340491   -0.0357138812
18   
Iteration 12 Energy -376.54086237
C        0.1677573972    0.0000811362    0.0004287122
C       -0.5632014746   -1.2402789671    0.0220428185
C       -1.9798479743   -1.2343502505    0.0215973044
C       -2.6924392506    0.0007465232   -0.0001120024
C       -1.9791683438    1.2354869710   -0.0214453217
C       -0.5625325444    1.2408020841   -0.0212564748
C        1.6773721542   -0.0003164109    0.0007587591
N        2.3969975240   -1.1821583465    0.0216562031
N        2.3980815955    1.1809203456   -0.0178680916
H       -0.0409402529   -2.2162333702    0.0391845570
H       -2.5310002942   -2.1947111917    0.0383483737
H       -3.8011318741    0.0010447281   -0.0004493809
H       -2.5298588947    2.1961101691   -0.0382128975
H       -0.0397610481    2.2164995162   -0.0378303697
H        3.4484689749   -1.1950025795    0.0217510165
H        1.9029928026   -2.1071661384    0.0376432464
H        3.4495419510    1.1934039926   -0.0235892195
H        1.9046017827    2.1060859658   -0.0396294981
18   
Iteration 13 Energy -376.54086211
C        0.1676158558   -0.0000555533    0.0003022256
C       -0.5633208895   -1.2404105573    0.0217453704
C       -1.9799435287   -1.2346867303    0.0214529469
C       -2.6917183619    0.0009104347   -0.0000750723
C       -1.9790928619    1.2360181497   -0.0213153988
C       -0.5624615815    1.2408245058   -0.0212277412
C        1.6772223599   -0.0005767295    0.0007165543
N        2.3977967717   -1.1818185197    0.0215180462
N        2.3975757959    1.1807749600   -0.0183999028
H       -0.0410064953   -2.2163459730    0.0386576890
H       -2.5313231606   -2.1949294203    0.0380713651
H       -3.8003997046    0.0012921406   -0.0002604135
H       -2.5298403820    2.1966222526   -0.0379207101
H       -0.0394792159    2.2163993015   -0.0377702228
H        3.4492828052   -1.1941138315    0.0220711686
H        1.9043794483   -2.1071222808    0.0384267445
H        3.4490571792    1.1919795419   -0.0230197471
H        1.9045185199    2.1061818563   -0.0399571923
