18   
Iteration 0 Energy -376.53473763
C        0.1521015000   -0.0004180000   -0.0030196000
C       -0.5544645000   -1.0579708000   -0.6557726000
C       -1.9752925000   -1.0472472000   -0.6439435000
C       -2.6789127000    0.0038662000    0.0105412000
C       -1.9657194000    1.0528385000    0.6580511000
C       -0.5447953000    1.0591950000    0.6566316000
C        1.6834145000   -0.0035640000   -0.0099756000
N        2.3725793000   -0.6335778000    1.0017463000
N        2.3689033000    0.6256325000   -1.0247544000
H       -0.0044297000   -1.8734060000   -1.1639271000
H       -2.5314946000   -1.8620096000   -1.1470710000
H       -3.7867290000    0.0056175000    0.0158554000
H       -2.5145763000    1.8693452000    1.1663837000
H        0.0126089000    1.8733029000    1.1588577000
H        3.4259177000   -0.6719727000    1.0512201000
H        1.8305458000   -1.1099147000    1.7685919000
H        3.4221760000    0.6555692000   -1.0814244000
H        1.8247960000    1.1030385000   -1.7894835000
18   
Iteration 1 Energy -376.53471272
C        0.1522657640    0.0176116617   -0.0146084204
C       -0.5494856469   -1.0647098710   -0.6307856113
C       -1.9703661493   -1.0626704856   -0.6144918683
C       -2.6801398606    0.0000247402    0.0141258202
C       -1.9712349697    1.0678819835    0.6348788165
C       -0.5503489748    1.0833920264    0.6287880228
C        1.6837734060    0.0126692802   -0.0053241431
N        2.3648725161   -0.6785782566    0.9711958916
N        2.3788133662    0.6649045952   -0.9986050706
H        0.0042732138   -1.8918580855   -1.1154140916
H       -2.5223695519   -1.8948863201   -1.0930483331
H       -3.7879300160   -0.0056348262    0.0230564850
H       -2.5236664236    1.8916121296    1.1274313188
H        0.0029784637    1.9103696342    1.1141946497
H        3.4178338688   -0.7316812059    1.0160930379
H        1.8176470208   -1.1873534341    1.7131565122
H        3.4324005872    0.6825623634   -1.0547947428
H        1.8415000543    1.1744983974   -1.7472034249
18   
Iteration 2 Energy -376.53477121
C        0.1522503703    0.0232928329   -0.0195031220
C       -0.5476865229   -1.0732852967   -0.6119780481
C       -1.9685740588   -1.0734294813   -0.5944030312
C       -2.6803058256   -0.0010853787    0.0153954637
C       -1.9730807456    1.0788540116    0.6168644527
C       -0.5522216957    1.0972268381    0.6081247863
C        1.6838417870    0.0167751678   -0.0033127436
N        2.3621902610   -0.7105815256    0.9485392852
N        2.3826307617    0.6929532446   -0.9776062579
H        0.0073106743   -1.9087047935   -1.0807411900
H       -2.5192622384   -1.9156177782   -1.0567472340
H       -3.7880693732   -0.0091991785    0.0257474324
H       -2.5266624265    1.9092964463    1.0966891012
H       -0.0000770606    1.9329221998    1.0797341010
H        3.4151127999   -0.7683615528    0.9894265055
H        1.8138893010   -1.2394892144    1.6755116011
H        3.4363385957    0.7101792643   -1.0317727258
H        1.8477699410    1.2264004774   -1.7111961195
18   
Iteration 3 Energy -376.53529438
C        0.1522864303    0.0236791221   -0.0248677613
C       -0.5465730923   -1.0967229433   -0.5732284680
C       -1.9672137999   -1.0986820866   -0.5548234984
C       -2.6742966088   -0.0043421521    0.0205612203
C       -1.9698387330    1.0990447550    0.5816582786
C       -0.5492531749    1.1203695059    0.5661077383
C        1.6829677487    0.0153914600   -0.0121892348
N        2.3503259846   -0.7703364284    0.9005915135
N        2.3862245760    0.7530304553   -0.9383302017
H        0.0091562850   -1.9460883128   -1.0153160422
H       -2.5189259617   -1.9563504655   -0.9866190091
H       -3.7819771454   -0.0134283937    0.0352228360
H       -2.5243677840    1.9438095525    1.0346593472
H        0.0039130246    1.9734731944    1.0042520762
H        3.4018665722   -0.8431511469    0.9472617706
H        1.7920704433   -1.3274511520    1.5981521035
H        3.4403585453    0.7792064489   -0.9770533398
H        1.8565934862    1.3363199566   -1.6368788515
18   
Iteration 4 Energy -376.53567209
C        0.1548581600   -0.0004895807   -0.0087566463
C       -0.5549724823   -1.1162081750   -0.5526853792
C       -1.9757981351   -1.0981964687   -0.5421401518
C       -2.6872977492    0.0043073029    0.0122982109
C       -1.9675872057    1.1062189349    0.5566266715
C       -0.5465986817    1.1148779278    0.5465679363
C        1.6846372220   -0.0094782788   -0.0118662930
N        2.3761289305   -0.7931913223    0.8846885189
N        2.3734356001    0.7749938340   -0.9094348133
H       -0.0073393452   -1.9749632809   -0.9867588437
H       -2.5312926747   -1.9552863069   -0.9698860072
H       -3.7952841057    0.0049793330    0.0195362583
H       -2.5141697373    1.9650536074    0.9923542013
H        0.0100423817    1.9736355257    0.9689434948
H        3.4295507271   -0.8441576129    0.9147407762
H        1.8376438050   -1.3692809800    1.5822511259
H        3.4262910956    0.8348697789   -0.9412082334
H        1.8306839786    1.3696374057   -1.5878555138
18   
Iteration 5 Energy -376.53573156
C        0.1528065687   -0.0444191083    0.0354778627
C       -0.5708659490   -1.1573989680   -0.5003823390
C       -1.9904226778   -1.1284485770   -0.5194202184
C       -2.6660595950    0.0145940558   -0.0029022741
C       -1.9483423945    1.1342372910    0.5087336009
C       -0.5283978771    1.1206913517    0.5103293198
C        1.6768491603   -0.0480489978   -0.0222533231
N        2.3979657123   -0.8443878717    0.8401218657
N        2.3337100609    0.8362523808   -0.8490273791
H       -0.0278971032   -2.0304233722   -0.9110770765
H       -2.5587110808   -1.9838985106   -0.9342182333
H       -3.7736079547    0.0376229063   -0.0090695937
H       -2.4898719314    2.0175767404    0.9000074149
H        0.0406522780    1.9897337378    0.8936341612
H        3.4522565652   -0.8739979464    0.8462231022
H        1.8844022155   -1.4630901751    1.5193832127
H        3.3817494426    0.9542064581   -0.8552542456
H        1.7690229759    1.4557214058   -1.4856701345
18   
Iteration 6 Energy -376.53598919
C        0.1537262527   -0.0361449340    0.0312404870
C       -0.5596875908   -1.1513729467   -0.5125524046
C       -1.9794178543   -1.1136501290   -0.5222535424
C       -2.6765460599    0.0146067703   -0.0016282596
C       -1.9528066847    1.1254354051    0.5201137955
C       -0.5326363903    1.1184211149    0.5248510553
C        1.6783571622   -0.0301442614   -0.0140358603
N        2.3918301763   -0.8265270536    0.8553263004
N        2.3382805712    0.8263992665   -0.8685052183
H       -0.0160504771   -2.0233421905   -0.9252475741
H       -2.5435770902   -1.9690237601   -0.9420755168
H       -3.7844360204    0.0315934919   -0.0091417095
H       -2.4949217734    2.0039461861    0.9209110378
H        0.0323055312    1.9829878738    0.9241640912
H        3.4452527863   -0.8756077019    0.8694872729
H        1.8674022974   -1.4442246784    1.5271268080
H        3.3882044907    0.9252463678   -0.8869756515
H        1.7778965894    1.4278110301   -1.5260148333
18   
Iteration 7 Energy -376.53597381
C        0.1570979525   -0.0301662891    0.0307089055
C       -0.5651451316   -1.1378613574   -0.5154534580
C       -1.9854871041   -1.1101090874   -0.5300492306
C       -2.6840632038    0.0156069339   -0.0063369439
C       -1.9622296537    1.1233065316    0.5247509934
C       -0.5416735793    1.1135862667    0.5315187189
C        1.6839089884   -0.0249720064   -0.0018522426
N        2.4038770745   -0.8161206280    0.8665008424
N        2.3451657309    0.8145903532   -0.8712389943
H       -0.0209968093   -2.0096935326   -0.9271661617
H       -2.5458636019   -1.9659785029   -0.9541808109
H       -3.7918880902    0.0318220911   -0.0161223906
H       -2.5052281503    1.9992724499    0.9300727309
H        0.0195846489    1.9750606711    0.9419497674
H        3.4575960897   -0.8654167506    0.8651830647
H        1.8864280394   -1.4377885887    1.5402282894
H        3.3955638883    0.9037775775   -0.9074573406
H        1.7824130479    1.4056098192   -1.5360639823
18   
Iteration 8 Energy -376.53603934
C        0.1533325938   -0.0354759892    0.0332963999
C       -0.5632319339   -1.1477475962   -0.5115774202
C       -1.9830833911   -1.1136069004   -0.5259317446
C       -2.6779677424    0.0165057609   -0.0066574146
C       -1.9563569985    1.1266861422    0.5196060666
C       -0.5361815134    1.1172198544    0.5272913648
C        1.6788543662   -0.0299191691   -0.0062233004
N        2.3985898905   -0.8223226416    0.8610658897
N        2.3376357224    0.8232345213   -0.8641736039
H       -0.0192079112   -2.0211969712   -0.9203969816
H       -2.5463861712   -1.9689063733   -0.9472319755
H       -3.7857536506    0.0345872888   -0.0169311376
H       -2.4992574094    2.0049385700    0.9200060120
H        0.0281691538    1.9794400154    0.9322711170
H        3.4523455894   -0.8700865754    0.8573055043
H        1.8822818848   -1.4479675755    1.5320161616
H        3.3877545356    0.9171226047   -0.8952059743
H        1.7741356594    1.4200367373   -1.5231809352
18   
Iteration 9 Energy -376.53604214
C        0.1546087536   -0.0364508923    0.0339481969
C       -0.5633014099   -1.1489589097   -0.5085224077
C       -1.9832299243   -1.1150253137   -0.5226818655
C       -2.6782929659    0.0158731726   -0.0054489562
C       -1.9556866195    1.1268515851    0.5178170835
C       -0.5355187997    1.1173303650    0.5246121385
C        1.6797827928   -0.0294868821   -0.0095756429
N        2.3967005905   -0.8235020703    0.8588425639
N        2.3379413323    0.8289127140   -0.8631659456
H       -0.0198086071   -2.0232510812   -0.9161931301
H       -2.5464917341   -1.9711122890   -0.9424288273
H       -3.7860921923    0.0340459470   -0.0151931915
H       -2.4981563165    2.0061833740    0.9164311918
H        0.0289018065    1.9806151439    0.9271867729
H        3.4499650799   -0.8800976444    0.8605141759
H        1.8750160334   -1.4510457838    1.5237347318
H        3.3882426699    0.9210741210   -0.8921298630
H        1.7755047294    1.4271103099   -1.5218148501
18   
Iteration 10 Energy -376.53604763
C        0.1537091837   -0.0362871187    0.0341192984
C       -0.5635641202   -1.1489747409   -0.5087381687
C       -1.9834830196   -1.1146129202   -0.5232647117
C       -2.6784647416    0.0164652271   -0.0063322026
C       -1.9564334234    1.1274648950    0.5177456513
C       -0.5363159910    1.1174882798    0.5251404419
C        1.6790244055   -0.0297339939   -0.0074893584
N        2.3972798198   -0.8224369689    0.8610031408
N        2.3371754105    0.8280556914   -0.8615659313
H       -0.0199995949   -2.0234894407   -0.9158629903
H       -2.5467807400   -1.9705896447   -0.9431807459
H       -3.7862534506    0.0346815623   -0.0166643014
H       -2.4990938532    2.0067136069    0.9162978336
H        0.0282197876    1.9802881417    0.9285908062
H        3.4505993247   -0.8787415868    0.8570177838
H        1.8778539283   -1.4533473672    1.5245456261
H        3.3874905408    0.9190125903   -0.8936929363
H        1.7741341199    1.4242380684   -1.5215127043
18   
Iteration 11 Energy -376.53604893
C        0.1529016781   -0.0357293680    0.0343300606
C       -0.5645694076   -1.1486176246   -0.5079054899
C       -1.9845172905   -1.1149885395   -0.5230148644
C       -2.6793299898    0.0164446189   -0.0067649917
C       -1.9566949408    1.1273461865    0.5168486532
C       -0.5365962797    1.1185003997    0.5250537688
C        1.6782634029   -0.0300457397   -0.0063800336
N        2.3968691563   -0.8218044986    0.8627323713
N        2.3367337423    0.8283491137   -0.8595492701
H       -0.0209033127   -2.0233699823   -0.9143777047
H       -2.5475734505   -1.9712998661   -0.9425855047
H       -3.7871190071    0.0349754450   -0.0171503346
H       -2.4995874392    2.0066536725    0.9149229138
H        0.0277947709    1.9814311375    0.9284729487
H        3.4500585093   -0.8807981113    0.8538224552
H        1.8781557714   -1.4567199197    1.5230787501
H        3.3871946227    0.9167601523   -0.8940670754
H        1.7738911296    1.4230489233   -1.5210029650
18   
Iteration 12 Energy -376.53604881
C        0.1522651314   -0.0364492265    0.0338520702
C       -0.5648464192   -1.1499077524   -0.5075733631
C       -1.9847673289   -1.1148588923   -0.5220271152
C       -2.6794378726    0.0170087436   -0.0064227555
C       -1.9578723755    1.1288170347    0.5166775211
C       -0.5378051278    1.1178211053    0.5238762347
C        1.6776253115   -0.0306713928   -0.0063307814
N        2.3960087375   -0.8215832741    0.8638325633
N        2.3363212984    0.8291832139   -0.8578877568
H       -0.0216121704   -2.0250838009   -0.9137368036
H       -2.5483418203   -1.9711671652   -0.9408935250
H       -3.7872212586    0.0352733217   -0.0168979927
H       -2.5004267362    2.0085598145    0.9143207937
H        0.0271594407    1.9807144807    0.9265153832
H        3.4490422008   -0.8834630447    0.8527270535
H        1.8769151390   -1.4597920973    1.5207437943
H        3.3868615944    0.9162274744   -0.8934872520
H        1.7737501870    1.4226845104   -1.5206468320
