18   
Iteration 0 Energy -376.53606301
C        0.1516875000    0.0513274000    0.0377709000
C       -0.5499529000   -0.9117405000    0.8308628000
C       -1.9696070000   -0.9350616000    0.7935870000
C       -2.6797261000   -0.0108146000   -0.0256676000
C       -1.9731030000    0.9352071000   -0.8231646000
C       -0.5531869000    0.9622249000   -0.8110535000
C        1.6771753000    0.0272717000    0.0180018000
N        2.3426379000   -0.4659590000   -1.0833289000
N        2.3867787000    0.4166819000    1.1329155000
H        0.0060052000   -1.6325512000    1.4611537000
H       -2.5203563000   -1.6786827000    1.4019649000
H       -3.7873351000   -0.0311247000   -0.0464750000
H       -2.5280904000    1.6505336000   -1.4608293000
H       -0.0010579000    1.6942945000   -1.4317138000
H        3.3943124000   -0.4755550000   -1.1650612000
H        1.7847573000   -0.7755563000   -1.9206972000
H        3.4384114000    0.3670990000    1.1967249000
H        1.8647552000    0.7985013000    1.9633894000
18   
Iteration 1 Energy -376.53506572
C        0.1531368554    0.0719694731    0.0524185436
C       -0.5447766524   -0.9219125396    0.8098883434
C       -1.9640143691   -0.9539519543    0.7636707754
C       -2.6804850615   -0.0153530757   -0.0334353299
C       -1.9787512932    0.9548189563   -0.8055027213
C       -0.5591243808    0.9897062540   -0.7831118713
C        1.6783501422    0.0468095243    0.0196402597
N        2.3298178137   -0.5141040381   -1.0574590559
N        2.3986591320    0.4621611299    1.1182480895
H        0.0133491590   -1.6578959665    1.4204737201
H       -2.5110532978   -1.7190096562    1.3482994176
H       -3.7877601376   -0.0453482030   -0.0596427685
H       -2.5355158041    1.6796762965   -1.4307887136
H       -0.0101749303    1.7375481482   -1.3875043678
H        3.3804923260   -0.5464789138   -1.1458054305
H        1.7613451457   -0.8585485511   -1.8738076683
H        3.4496432920    0.3972304431    1.1788936928
H        1.8866906742    0.8795768847    1.9377942197
18   
Iteration 2 Energy -376.53456849
C        0.1507490676    0.0769704172    0.0570513781
C       -0.5444658769   -0.9357878208    0.7916964663
C       -1.9635776902   -0.9701976780    0.7439480663
C       -2.6797647339   -0.0169150074   -0.0354901865
C       -1.9787523226    0.9694490345   -0.7873326796
C       -0.5592978053    1.0096074400   -0.7635930972
C        1.6767792286    0.0484247887    0.0198485648
N        2.3254628551   -0.5523050693   -1.0373138813
N        2.4008619935    0.4973304902    1.1025588169
H        0.0150234401   -1.6823632213    1.3880422037
H       -2.5096485138   -1.7479890483    1.3124756385
H       -3.7869024422   -0.0484310661   -0.0642000776
H       -2.5368015377    1.7041539978   -1.3997833050
H       -0.0109691018    1.7697430296   -1.3531185281
H        3.3760090601   -0.5931954264   -1.1251075922
H        1.7549657292   -0.9188781704   -1.8426446111
H        3.4520856230    0.4335718257    1.1624152118
H        1.8919221583    0.9451380614    1.9079645460
18   
Iteration 3 Energy -376.53401412
C        0.1506564878    0.0779699430    0.0605742926
C       -0.5469667693   -0.9597652328    0.7569090653
C       -1.9663524524   -0.9949279839    0.7103905925
C       -2.6825968678   -0.0172889180   -0.0374715371
C       -1.9811294802    0.9933977529   -0.7552017667
C       -0.5614816948    1.0354188887   -0.7286036830
C        1.6788204947    0.0458352735    0.0197746525
N        2.3243092821   -0.6151410223   -1.0025607031
N        2.4082063904    0.5552178368    1.0714671567
H        0.0123946883   -1.7244835860    1.3297661603
H       -2.5111053212   -1.7915151871    1.2536528385
H       -3.7896248020   -0.0487112942   -0.0683844072
H       -2.5391893286    1.7465030433   -1.3448483639
H       -0.0143846768    1.8153710060   -1.2927421449
H        3.3752819734   -0.6623075218   -1.0839740693
H        1.7541860895   -1.0194089024   -1.7901582495
H        3.4604146074    0.5025458526    1.1282509452
H        1.9021672722    1.0497030506    1.8511702958
18   
Iteration 4 Energy -376.53434183
C        0.1445784560    0.0517642043    0.0483790891
C       -0.5465055985   -0.9898239615    0.7441432729
C       -1.9662724225   -1.0038516418    0.6996854425
C       -2.6772863287   -0.0112196492   -0.0340244917
C       -1.9740557683    1.0068213674   -0.7395798527
C       -0.5541008392    1.0377877388   -0.7163612828
C        1.6743231239    0.0246526103    0.0231079381
N        2.3299915846   -0.6386782751   -0.9909987673
N        2.3928510435    0.5849052705    1.0559638251
H        0.0099351914   -1.7619412464    1.3100988486
H       -2.5180876572   -1.7991082326    1.2375758039
H       -3.7846232827   -0.0338646328   -0.0598117244
H       -2.5291208593    1.7737272128   -1.3140641070
H       -0.0001314384    1.8240483687   -1.2648990141
H        3.3810668031   -0.6790328922   -1.0761009912
H        1.7632122034   -1.0570882379   -1.7736877863
H        3.4466900691    0.5641614978    1.1055176946
H        1.8777103299    1.0929676009    1.8210476181
18   
Iteration 5 Energy -376.53454150
C        0.1503980307    0.0012647042    0.0101397751
C       -0.5678082433   -1.0287922681    0.6924935549
C       -1.9893441885   -1.0270768967    0.6809024210
C       -2.6869014284   -0.0000943969   -0.0170235279
C       -1.9662354651    1.0257252735   -0.6932676034
C       -0.5446172888    1.0356896343   -0.6864708733
C        1.6848672841   -0.0170255469    0.0263139117
N        2.3654917027   -0.6880881435   -0.9645969534
N        2.3748731173    0.6473912103    1.0147065238
H       -0.0196500086   -1.8205026952    1.2380970807
H       -2.5459222381   -1.8239081885    1.2118610071
H       -3.7945935206    0.0027676734   -0.0303061118
H       -2.5124267131    1.8241556535   -1.2322082674
H        0.0136151302    1.8368568411   -1.2079080226
H        3.4182677902   -0.7098177362   -1.0369010201
H        1.8161026892   -1.1479566686   -1.7365582667
H        3.4284857521    0.6949772774    1.0553038930
H        1.8343365667    1.1753776681    1.7483553180
18   
Iteration 6 Energy -376.53468184
C        0.1480619786   -0.0014282766    0.0081064503
C       -0.5602741246   -1.0326001557    0.6997351387
C       -1.9812265690   -1.0167821852    0.6830862598
C       -2.6870413777    0.0064950256   -0.0121934355
C       -1.9722170455    1.0295030441   -0.6977429642
C       -0.5510082259    1.0300120726   -0.6915976352
C        1.6806194830   -0.0101216392    0.0137743256
N        2.3716314321   -0.6771652581   -0.9724492087
N        2.3671501885    0.6421443937    1.0124094494
H       -0.0129264781   -1.8272094283    1.2425710554
H       -2.5391089674   -1.8107602648    1.2165541908
H       -3.7948677959    0.0075633965   -0.0187701183
H       -2.5180728623    1.8270110808   -1.2385104198
H        0.0076385803    1.8251459441   -1.2218659280
H        3.4254489374   -0.6919374626   -1.0276244445
H        1.8336283151   -1.1546221801   -1.7416352655
H        3.4203774297    0.6856682818    1.0619309082
H        1.8230053244    1.1509166983    1.7566809836
18   
Iteration 7 Energy -376.53465279
C        0.1443012647    0.0067176191    0.0052485881
C       -0.5571895038   -1.0270064371    0.7019581311
C       -1.9775438643   -1.0208220915    0.6897734480
C       -2.6769405850    0.0041816368   -0.0088784822
C       -1.9654985307    1.0259290481   -0.7005177570
C       -0.5449918405    1.0393492838   -0.7038619125
C        1.6744234278    0.0018416926    0.0091113824
N        2.3643311397   -0.6665922135   -0.9772844931
N        2.3606676854    0.6401672934    1.0176540459
H       -0.0043377681   -1.8204852668    1.2410952507
H       -2.5340581460   -1.8150107851    1.2245067942
H       -3.7847392591    0.0058741030   -0.0154635670
H       -2.5171226318    1.8186447365   -1.2422847776
H        0.0119435316    1.8311906971   -1.2413948697
H        3.4176876337   -0.6965595048   -1.0312999560
H        1.8229804520   -1.1508867207   -1.7395867307
H        3.4139487618    0.6675398194    1.0742489835
H        1.8177404400    1.1391678236    1.7692742544
18   
Iteration 8 Energy -376.53472855
C        0.1485452789   -0.0005655189    0.0053220870
C       -0.5592624019   -1.0324417448    0.6967758155
C       -1.9800361948   -1.0207048475    0.6830595180
C       -2.6828279102    0.0057581414   -0.0104130708
C       -1.9682501223    1.0289811952   -0.6963533266
C       -0.5472415000    1.0337162202   -0.6943298325
C        1.6798447151   -0.0040202430    0.0136600054
N        2.3686135156   -0.6722975037   -0.9736104760
N        2.3648058142    0.6494480702    1.0134670068
H       -0.0102146973   -1.8291189837    1.2348797933
H       -2.5372970140   -1.8158086119    1.2155994842
H       -3.7906424253    0.0081738284   -0.0164051716
H       -2.5158552076    1.8265041110   -1.2352467756
H        0.0109171691    1.8278639815   -1.2267591153
H        3.4217616539   -0.7033385825   -1.0316626444
H        1.8251813625   -1.1584990888   -1.7332421518
H        3.4180966128    0.6841932480    1.0671638341
H        1.8206343968    1.1549428147    1.7598928010
18   
Iteration 9 Energy -376.53473233
C        0.1478963334   -0.0029575277    0.0034700585
C       -0.5605399744   -1.0345133761    0.6944656474
C       -1.9813854472   -1.0214089063    0.6828252464
C       -2.6836576898    0.0070087867   -0.0082266475
C       -1.9684891751    1.0306107898   -0.6930349444
C       -0.5474798887    1.0340589277   -0.6924630573
C        1.6795482002   -0.0077106276    0.0111458241
N        2.3727299582   -0.6740902552   -0.9740384967
N        2.3631294989    0.6519394505    1.0073977248
H       -0.0117645199   -1.8324940208    1.2308854372
H       -2.5388227083   -1.8165902874    1.2150726020
H       -3.7914695983    0.0108255468   -0.0128962193
H       -2.5158459665    1.8297523722   -1.2297792348
H        0.0110719895    1.8286595379   -1.2237805646
H        3.4266538293   -0.7004381964   -1.0206593335
H        1.8359886224   -1.1667631127   -1.7343592902
H        3.4162455805    0.6888290005    1.0633875036
H        1.8168920131    1.1581746437    1.7518230985
18   
Iteration 10 Energy -376.53473690
C        0.1484321977   -0.0022700159    0.0038660536
C       -0.5597429665   -1.0344000973    0.6942864497
C       -1.9805861685   -1.0217224837    0.6821637933
C       -2.6829913273    0.0066821198   -0.0087209732
C       -1.9680986336    1.0306590492   -0.6932835789
C       -0.5471417319    1.0345577406   -0.6923470953
C        1.6799240491   -0.0060995675    0.0116689689
N        2.3720961272   -0.6721646177   -0.9744992956
N        2.3637095120    0.6538223026    1.0077433640
H       -0.0108775927   -1.8326066532    1.2302935161
H       -2.5379201968   -1.8172553539    1.2139877052
H       -3.7908059529    0.0100902658   -0.0136532748
H       -2.5156495940    1.8296756723   -1.2300215916
H        0.0113520421    1.8291845495   -1.2236942369
H        3.4257388362   -0.7039488785   -1.0231557558
H        1.8329652626   -1.1676159937   -1.7312514090
H        3.4168661521    0.6882877063    1.0642473712
H        1.8179386063    1.1585025450    1.7535483382
18   
Iteration 11 Energy -376.53473819
C        0.1491883524   -0.0014837323    0.0044063916
C       -0.5587473046   -1.0344645686    0.6937965997
C       -1.9796049224   -1.0222386328    0.6811009710
C       -2.6822456007    0.0061973009   -0.0094529155
C       -1.9673710203    1.0307636168   -0.6932173061
C       -0.5464471357    1.0353462121   -0.6918447946
C        1.6805772896   -0.0048177245    0.0124428066
N        2.3706876060   -0.6705679153   -0.9754171372
N        2.3651051626    0.6562910978    1.0073779948
H       -0.0098332694   -1.8328136988    1.2295503182
H       -2.5368087679   -1.8182942303    1.2122724161
H       -3.7900632100    0.0091564652   -0.0148578878
H       -2.5150781382    1.8297891750   -1.2297812567
H        0.0120086368    1.8303694660   -1.2226519418
H        3.4241915292   -0.7070205066   -1.0230678354
H        1.8300833542   -1.1700004465   -1.7284791225
H        3.4183118894    0.6881711515    1.0642542558
H        1.8201230576    1.1596193495    1.7546654013
18   
Iteration 12 Energy -376.53473831
C        0.1493859148   -0.0012171932    0.0045387400
C       -0.5585312604   -1.0344367605    0.6935877746
C       -1.9793962320   -1.0225022283    0.6810861286
C       -2.6817921760    0.0061926936   -0.0093234619
C       -1.9673159236    1.0311906230   -0.6928800288
C       -0.5463961317    1.0357097139   -0.6913951681
C        1.6808562005   -0.0051111527    0.0119086655
N        2.3722612900   -0.6698422052   -0.9757421320
N        2.3652483263    0.6569566369    1.0061859919
H       -0.0095359004   -1.8327560965    1.2292896724
H       -2.5365677068   -1.8187308418    1.2120422778
H       -3.7896027529    0.0090762987   -0.0147445995
H       -2.5151477071    1.8302801649   -1.2292321555
H        0.0120591745    1.8309789754   -1.2218271268
H        3.4257565796   -0.7083064656   -1.0224791898
H        1.8319031720   -1.1713300741   -1.7276012042
H        3.4184270625    0.6884311566    1.0639209389
H        1.8199829401    1.1596731031    1.7536810659
