18   
Iteration 0 Energy -376.53881191
C        0.1517158000    0.0593756000    0.0456841000
C       -0.5585108000   -0.8201917000    0.9274011000
C       -1.9768045000   -0.8500795000    0.8823327000
C       -2.6829254000   -0.0129949000   -0.0301512000
C       -1.9720158000    0.8493188000   -0.9156291000
C       -0.5533829000    0.8762528000   -0.8977083000
C        1.6677524000    0.0262471000    0.0272725000
N        2.3371165000   -0.2836087000   -1.1389888000
N        2.3778346000    0.2052349000    1.1965123000
H       -0.0066241000   -1.4803731000    1.6244487000
H       -2.5317098000   -1.5322279000    1.5555522000
H       -3.7906268000   -0.0369118000   -0.0555307000
H       -2.5243132000    1.4974784000   -1.6236303000
H        0.0013622000    1.5483253000   -1.5810830000
H        3.3880803000   -0.2703451000   -1.2186992000
H        1.7828269000   -0.4573387000   -2.0161685000
H        3.4262728000    0.1147976000    1.2524707000
H        1.8628472000    0.4717408000    2.0741740000
18   
Iteration 1 Energy -376.53760708
C        0.1528777647    0.0830538678    0.0590156295
C       -0.5546830663   -0.8307084244    0.9076229794
C       -1.9724261454   -0.8727639802    0.8559409751
C       -2.6822892649   -0.0183795809   -0.0372852678
C       -1.9747131155    0.8703760958   -0.8988665633
C       -0.5564861236    0.9090898883   -0.8732568132
C        1.6686231685    0.0464246970    0.0299861374
N        2.3240959732   -0.3362837060   -1.1224435768
N        2.3880783293    0.2519191237    1.1890700128
H       -0.0000812597   -1.5072344787    1.5866129196
H       -2.5235615328   -1.5787250687    1.5073616755
H       -3.7895861145   -0.0517323307   -0.0687586532
H       -2.5291576770    1.5288791397   -1.5955549879
H       -0.0049574164    1.5988592761   -1.5414406670
H        3.3745515142   -0.3458850987   -1.2091223900
H        1.7606718362   -0.5455882255   -1.9859386461
H        3.4350547504    0.1446396939    1.2426157851
H        1.8828239293    0.5571071542    2.0597658650
18   
Iteration 2 Energy -376.53691407
C        0.1487717192    0.0856502684    0.0637210603
C       -0.5523433202   -0.8500898459    0.8930150910
C       -1.9700231418   -0.8908845198    0.8355316624
C       -2.6805442694   -0.0192990008   -0.0401338455
C       -1.9745703662    0.8894319572   -0.8816971181
C       -0.5564065521    0.9311061243   -0.8537660640
C        1.6662901896    0.0434935957    0.0283952772
N        2.3195266413   -0.3819971823   -1.1101572869
N        2.3897648384    0.2903651283    1.1765472730
H        0.0034638290   -1.5375620443    1.5600327219
H       -2.5214154250   -1.6112343368    1.4707231795
H       -3.7876663350   -0.0546027956   -0.0735925789
H       -2.5297679781    1.5604702469   -1.5656627281
H       -0.0037208686    1.6345691128   -1.5065900685
H        3.3700469655   -0.3975789662   -1.1989415512
H        1.7539220155   -0.6113395828   -1.9673691939
H        3.4373348217    0.1873068172    1.2321056571
H        1.8868982181    0.6324058837    2.0351382596
18   
Iteration 3 Energy -376.53589797
C        0.1489537712    0.0861712592    0.0674761878
C       -0.5565522467   -0.8768808763    0.8600513969
C       -1.9747738433   -0.9200963522    0.8028754133
C       -2.6843745767   -0.0203155253   -0.0433846181
C       -1.9776973683    0.9172495659   -0.8512565529
C       -0.5590570704    0.9594623170   -0.8200228201
C        1.6705826415    0.0371847023    0.0280079475
N        2.3184128777   -0.4537263301   -1.0866229410
N        2.4008835792    0.3527785792    1.1542874098
H       -0.0010933322   -1.5822047887    1.5082147854
H       -2.5246249725   -1.6622892717    1.4138902260
H       -3.7912691742   -0.0556228945   -0.0799740789
H       -2.5323001675    1.6098483752   -1.5138738524
H       -0.0068572170    1.6841226351   -1.4494300963
H        3.3690598952   -0.4763103973   -1.1776566812
H        1.7495759221   -0.7153356170   -1.9328669916
H        3.4500598724    0.2611484034    1.2080813838
H        1.9024924468    0.7490284462    1.9924042630
18   
Iteration 4 Energy -376.53599191
C        0.1494420839    0.0648594349    0.0547773671
C       -0.5605392741   -0.8960872894    0.8443845145
C       -1.9797892794   -0.9283121269    0.7949900123
C       -2.6857716359   -0.0158845311   -0.0402963371
C       -1.9752320613    0.9261228401   -0.8391688358
C       -0.5557455387    0.9578793176   -0.8134743543
C        1.6744318432    0.0212881569    0.0298690355
N        2.3226389966   -0.4744442547   -1.0815823600
N        2.3994462063    0.3760624920    1.1474075576
H       -0.0079202210   -1.6064458983    1.4892647105
H       -2.5321257044   -1.6701414441    1.4042124814
H       -3.7929695848   -0.0423562506   -0.0727574334
H       -2.5271429722    1.6316176809   -1.4903460450
H       -0.0011754704    1.6873916670   -1.4349291191
H        3.3734056758   -0.4871689879   -1.1749075140
H        1.7543836863   -0.7451422442   -1.9256892856
H        3.4509858590    0.3100215169    1.1970570454
H        1.8952900748    0.7785569611    1.9792924564
18   
Iteration 5 Energy -376.53600563
C        0.1483512885    0.0521332080    0.0437984638
C       -0.5626370561   -0.9058320724    0.8351276206
C       -1.9824781176   -0.9311054234    0.7946220139
C       -2.6879076068   -0.0104932110   -0.0321250215
C       -1.9767176353    0.9320463289   -0.8296308070
C       -0.5567318446    0.9565062814   -0.8115627331
C        1.6747161911    0.0126046791    0.0212027094
N        2.3393786616   -0.4830281273   -1.0800578023
N        2.3902345797    0.3877886093    1.1370404315
H       -0.0102339037   -1.6212611032    1.4744428792
H       -2.5351498371   -1.6723140105    1.4042995915
H       -3.7953798231   -0.0302703121   -0.0582385600
H       -2.5282124202    1.6449534568   -1.4730470701
H       -0.0021394504    1.6866464197   -1.4321830803
H        3.3907720333   -0.4902428998   -1.1688678954
H        1.7789430591   -0.7676698135   -1.9247731999
H        3.4422418413    0.3378622733    1.1960082262
H        1.8744605056    0.7855688897    1.9640639129
18   
Iteration 6 Energy -376.53602022
C        0.1486893165    0.0520902989    0.0446949285
C       -0.5623394466   -0.9058592469    0.8361208615
C       -1.9820933436   -0.9306590031    0.7943207844
C       -2.6878421949   -0.0100272623   -0.0321007235
C       -1.9765833235    0.9318612962   -0.8301438433
C       -0.5565874065    0.9559498551   -0.8113952394
C        1.6747578797    0.0136567700    0.0211842355
N        2.3363742333   -0.4821065806   -1.0818888091
N        2.3912747624    0.3888540715    1.1367560198
H       -0.0102728074   -1.6225080888    1.4744106294
H       -2.5350810705   -1.6721263528    1.4033846267
H       -3.7953203842   -0.0298622061   -0.0581411636
H       -2.5277647117    1.6443740517   -1.4742527799
H       -0.0017392020    1.6848753614   -1.4332352243
H        3.3881562062   -0.4873653081   -1.1653073985
H        1.7773382183   -0.7684526339   -1.9269791330
H        3.4431566533    0.3352861099    1.1945048484
H        1.8768419569    0.7859409566    1.9649923239
18   
Iteration 7 Energy -376.53603178
C        0.1492438937    0.0536759256    0.0462244998
C       -0.5616925060   -0.9050665120    0.8369914311
C       -1.9812507913   -0.9313855798    0.7939125225
C       -2.6860706340   -0.0106827427   -0.0332024740
C       -1.9747600855    0.9309463530   -0.8314786489
C       -0.5548497774    0.9567380027   -0.8121721386
C        1.6748151436    0.0169756873    0.0231287296
N        2.3307182422   -0.4790753521   -1.0833000501
N        2.3931024281    0.3914583416    1.1383972614
H       -0.0094766897   -1.6226843780    1.4741136892
H       -2.5344813746   -1.6734341211    1.4020618033
H       -3.7935172185   -0.0310111193   -0.0602303969
H       -2.5261011609    1.6424009492   -1.4765945487
H        0.0002689360    1.6845611150   -1.4351073536
H        3.3818910621   -0.4906990592   -1.1720972790
H        1.7666286224   -0.7668480043   -1.9244510908
H        3.4446646158    0.3314748848    1.1956513369
H        1.8803283536    0.7867974149    1.9684926088
18   
Iteration 8 Energy -376.53604440
C        0.1494223105    0.0510151775    0.0450560525
C       -0.5603727058   -0.9080000720    0.8360574248
C       -1.9799555372   -0.9305024117    0.7923110456
C       -2.6867805347   -0.0090308156   -0.0325145978
C       -1.9756292817    0.9324341325   -0.8310301730
C       -0.5556661462    0.9553141428   -0.8114787220
C        1.6748597475    0.0177117208    0.0215832664
N        2.3305636468   -0.4777071251   -1.0849504898
N        2.3927341457    0.3972442501    1.1353318398
H       -0.0087338803   -1.6280262662    1.4710233406
H       -2.5335692216   -1.6723486542    1.4002860077
H       -3.7942989683   -0.0288497993   -0.0577599347
H       -2.5263255801    1.6452735968   -1.4751948126
H       -0.0001332550    1.6823277735   -1.4349336651
H        3.3816333118   -0.4919410153   -1.1737131149
H        1.7658026655   -0.7735609225   -1.9227637454
H        3.4440764877    0.3349236784    1.1937950354
H        1.8787602581    0.7871402456    1.9671891693
18   
Iteration 9 Energy -376.53605563
C        0.1466303580    0.0454561006    0.0366441464
C       -0.5592708102   -0.9138895734    0.8301273132
C       -1.9789753480   -0.9323685783    0.7932138115
C       -2.6852917953   -0.0059664040   -0.0268957011
C       -1.9751194311    0.9357458783   -0.8263597890
C       -0.5551884431    0.9571659747   -0.8144847158
C        1.6718665469    0.0166224776    0.0137897531
N        2.3337039227   -0.4785875163   -1.0884541134
N        2.3854811678    0.4092181059    1.1249619788
H       -0.0060196013   -1.6374767516    1.4596553878
H       -2.5324121534   -1.6733576975    1.4023721454
H       -3.7929749279   -0.0220069973   -0.0473437957
H       -2.5273666653    1.6520682347   -1.4652992336
H        0.0000819032    1.6842994518   -1.4381101802
H        3.3855300351   -0.4939502104   -1.1664928116
H        1.7748606830   -0.7942208461   -1.9229065284
H        3.4363268996    0.3454635272    1.1891216007
H        1.8660721064    0.7872300805    1.9587724580
18   
Iteration 10 Energy -376.53606231
C        0.1468726398    0.0463964793    0.0374915260
C       -0.5589965751   -0.9131274382    0.8309950798
C       -1.9787377100   -0.9317338571    0.7925939964
C       -2.6856864265   -0.0066948942   -0.0283739276
C       -1.9758822880    0.9356394314   -0.8273611677
C       -0.5559487474    0.9570422683   -0.8136891737
C        1.6722310586    0.0162255653    0.0154097836
N        2.3337802248   -0.4796677645   -1.0871572052
N        2.3862109726    0.4062275074    1.1274314603
H       -0.0061226200   -1.6350415197    1.4627553559
H       -2.5321645666   -1.6727325796    1.4017366764
H       -3.7933355786   -0.0237646221   -0.0496352806
H       -2.5279667141    1.6515483642   -1.4669141619
H       -0.0008697304    1.6855902099   -1.4358352204
H        3.3852237006   -0.4961047858   -1.1704713011
H        1.7728366724   -0.7905926394   -1.9219562922
H        3.4372658719    0.3462661362    1.1917744542
H        1.8670080523    0.7868373107    1.9602434138
18   
Iteration 11 Energy -376.53606290
C        0.1466118462    0.0466949468    0.0371942095
C       -0.5591543088   -0.9127677569    0.8309734068
C       -1.9789004029   -0.9313241181    0.7925286958
C       -2.6865612334   -0.0068498999   -0.0284521053
C       -1.9762391215    0.9353140021   -0.8271811789
C       -0.5562772163    0.9572333352   -0.8138830017
C        1.6719397951    0.0162186204    0.0158480073
N        2.3342563554   -0.4801374683   -1.0860836042
N        2.3852639449    0.4050689911    1.1286163689
H       -0.0062926182   -1.6342501696    1.4632350401
H       -2.5320787948   -1.6723027499    1.4019078626
H       -3.7942179496   -0.0240004935   -0.0497917793
H       -2.5283331817    1.6511821181   -1.4667517428
H       -0.0015470582    1.6862971593   -1.4357506408
H        3.3856779118   -0.4966826602   -1.1697824703
H        1.7735129461   -0.7896082547   -1.9215614386
H        3.4365102116    0.3459911866    1.1907600682
H        1.8669094063    0.7871019404    1.9613257055
