18   
Iteration 0 Energy -376.54115593
C        0.1541917000    0.0383964000   -0.0314905000
C       -0.5624117000   -0.7866697000   -0.9624153000
C       -1.9801702000   -0.8074947000   -0.9280200000
C       -2.6841636000   -0.0092552000    0.0212472000
C       -1.9720679000    0.8059043000    0.9503088000
C       -0.5541510000    0.8233163000    0.9394354000
C        1.6639234000    0.0174198000   -0.0238296000
N        2.3540969000   -0.0545982000    1.1703192000
N        2.3664712000    0.0057695000   -1.2128442000
H       -0.0145673000   -1.4251069000   -1.6826045000
H       -2.5372823000   -1.4513127000   -1.6362881000
H       -3.7923355000   -0.0251410000    0.0395661000
H       -2.5238827000    1.4272584000    1.6823645000
H       -0.0014250000    1.4705406000    1.6481140000
H        3.4049695000   -0.0118136000    1.2249207000
H        1.8187872000   -0.1103128000    2.0733445000
H        3.4149214000   -0.0819210000   -1.2564995000
H        1.8481423000    0.1221912000   -2.1198938000
18   
Iteration 1 Energy -376.54030518
C        0.1556844253    0.0632273047   -0.0470871360
C       -0.5593474255   -0.7982208233   -0.9456583516
C       -1.9767005876   -0.8298429080   -0.9011256475
C       -2.6864957232   -0.0146905492    0.0291733383
C       -1.9732776833    0.8270749968    0.9331688575
C       -0.5555740014    0.8575365765    0.9140125059
C        1.6652848767    0.0387079286   -0.0318126614
N        2.3415805008   -0.1083348012    1.1634193297
N        2.3759193889    0.0538714112   -1.2161148584
H       -0.0104246425   -1.4540948665   -1.6491955074
H       -2.5309392995   -1.4988348859   -1.5879196807
H       -3.7943902334   -0.0406040382    0.0545954201
H       -2.5255966256    1.4594047760    1.6553209873
H       -0.0053004876    1.5229348856    1.6076193125
H        3.3922643116   -0.0893685809    1.2326879726
H        1.7949006966   -0.2017144596    2.0564535690
H        3.4230575319   -0.0506547571   -1.2538079070
H        1.8673043652    0.2114069617   -2.1224694519
18   
Iteration 2 Energy -376.53971187
C        0.1498840233    0.0698475345   -0.0528269944
C       -0.5578423111   -0.8149167879   -0.9338033715
C       -1.9749845713   -0.8528737533   -0.8869855565
C       -2.6758045704   -0.0168062175    0.0313347595
C       -1.9728563120    0.8493196253    0.9203263567
C       -0.5553563686    0.8824412861    0.8966900563
C        1.6607527107    0.0381721120   -0.0307091979
N        2.3351059814   -0.1540209720    1.1589611052
N        2.3730773435    0.0906753412   -1.2123944686
H       -0.0043190628   -1.4788464021   -1.6261109430
H       -2.5305303877   -1.5373620279   -1.5574274554
H       -3.7833486636   -0.0457073785    0.0595996981
H       -2.5283107759    1.4926221841    1.6303987605
H       -0.0019262468    1.5602728666    1.5756500473
H        3.3861284834   -0.1429130275    1.2303758727
H        1.7858772300   -0.2655085388    2.0487102470
H        3.4202861256   -0.0134593546   -1.2569092092
H        1.8643264742    0.2880270666   -2.1112250125
18   
Iteration 3 Energy -376.53874905
C        0.1515289688    0.0805607713   -0.0629746274
C       -0.5578627427   -0.8341846047   -0.9101086941
C       -1.9753304072   -0.8756159770   -0.8540934259
C       -2.6864439362   -0.0198659759    0.0369407202
C       -1.9757165270    0.8719202564    0.8931407667
C       -0.5578154047    0.9120758562    0.8656963249
C        1.6647483675    0.0414147752   -0.0328938865
N        2.3304377363   -0.2192915856    1.1480926278
N        2.3828288919    0.1453376760   -1.2070933066
H       -0.0043012132   -1.5129052573   -1.5878735470
H       -2.5273276218   -1.5839927536   -1.5021211523
H       -3.7937718607   -0.0536979788    0.0701589546
H       -2.5294443441    1.5328333829    1.5880727666
H       -0.0054678715    1.6087429609    1.5261833369
H        3.3815783702   -0.2193343268    1.2242661242
H        1.7750158851   -0.3592422452    2.0304105046
H        3.4302794251    0.0406839475   -1.2530955666
H        1.8787127160    0.3945992677   -2.0960164751
18   
Iteration 4 Energy -376.53878705
C        0.1508704523    0.0713487315   -0.0585384661
C       -0.5580663644   -0.8434284747   -0.9052784291
C       -1.9758437270   -0.8802059846   -0.8508478751
C       -2.6827699302   -0.0185039049    0.0378356537
C       -1.9725349626    0.8767508042    0.8909048230
C       -0.5544222892    0.9118450073    0.8643416103
C        1.6658348777    0.0353399974   -0.0364085294
N        2.3257101261   -0.2283670368    1.1467680189
N        2.3818507020    0.1554196593   -1.2103312502
H       -0.0051862727   -1.5225003353   -1.5831734959
H       -2.5300250391   -1.5879802583   -1.4976969901
H       -3.7901511183   -0.0489861323    0.0703806051
H       -2.5254667748    1.5431021903    1.5813072472
H        0.0003006928    1.6096562601    1.5214782336
H        3.3762094144   -0.2231832546    1.2316816508
H        1.7648868975   -0.3687278548    2.0257141890
H        3.4306136220    0.0617430596   -1.2524224832
H        1.8768219223    0.4057584825   -2.0985107815
18   
Iteration 5 Energy -376.53880355
C        0.1497307584    0.0617860847   -0.0490570400
C       -0.5594721092   -0.8505532250   -0.8975965848
C       -1.9777721457   -0.8831459703   -0.8516709359
C       -2.6834636473   -0.0152914814    0.0318939719
C       -1.9744840972    0.8811384669    0.8847068666
C       -0.5560067541    0.9106972477    0.8648553432
C        1.6665246652    0.0288851480   -0.0297502299
N        2.3375616749   -0.2371331135    1.1461230230
N        2.3754130740    0.1640033924   -1.2054925512
H       -0.0060047551   -1.5316883341   -1.5728022757
H       -2.5316275584   -1.5900034339   -1.4998434991
H       -3.7910449842   -0.0408381386    0.0596761634
H       -2.5281929077    1.5532242331    1.5689226016
H       -0.0020450804    1.6090397723    1.5219519395
H        3.3884880588   -0.2235676974    1.2267337201
H        1.7827823010   -0.3818491336    2.0282174704
H        3.4248165469    0.0825509354   -1.2579993836
H        1.8604970216    0.4099343006   -2.0891760477
18   
Iteration 6 Energy -376.53880690
C        0.1492904685    0.0597531525   -0.0480257053
C       -0.5578979893   -0.8524761350   -0.8983362918
C       -1.9761485654   -0.8815993234   -0.8511315871
C       -2.6836845563   -0.0137158229    0.0309786449
C       -1.9748093570    0.8814985105    0.8848753971
C       -0.5562738052    0.9094424360    0.8654643952
C        1.6656761217    0.0293603427   -0.0285266407
N        2.3369407182   -0.2375189038    1.1470068184
N        2.3742209625    0.1654693691   -1.2043290545
H       -0.0049376208   -1.5354243848   -1.5722392325
H       -2.5304036469   -1.5879809775   -1.4994083656
H       -3.7913354069   -0.0386965431    0.0572301401
H       -2.5281764551    1.5539967863    1.5689462200
H       -0.0021847917    1.6066917898    1.5236856698
H        3.3882267370   -0.2203780110    1.2217842666
H        1.7851180789   -0.3836504340    2.0307747653
H        3.4235440786    0.0835658801   -1.2571195866
H        1.8585385077    0.4071658491   -2.0887535968
18   
Iteration 7 Energy -376.53880942
C        0.1506132841    0.0612866147   -0.0485209343
C       -0.5588823798   -0.8501461132   -0.8979482407
C       -1.9770956761   -0.8815752712   -0.8516298725
C       -2.6841456314   -0.0140767189    0.0311746350
C       -1.9739114876    0.8797637984    0.8853700071
C       -0.5553256991    0.9093056533    0.8662796081
C        1.6665108084    0.0313020066   -0.0298125187
N        2.3355428006   -0.2359510999    1.1470998099
N        2.3758366776    0.1651999034   -1.2056513656
H       -0.0061071194   -1.5338193193   -1.5712348458
H       -2.5309136049   -1.5882493399   -1.4999969504
H       -3.7917911908   -0.0389336294    0.0581913644
H       -2.5271327171    1.5512212754    1.5705517588
H       -0.0017268269    1.6058789619    1.5256626094
H        3.3865891480   -0.2203874719    1.2248324641
H        1.7817799906   -0.3808235378    2.0298372527
H        3.4248868879    0.0790653111   -1.2564570330
H        1.8615754309    0.4047824455   -2.0914920181
18   
Iteration 8 Energy -376.53881016
C        0.1505920642    0.0605234964   -0.0489323807
C       -0.5586543919   -0.8509779897   -0.8983738116
C       -1.9768678587   -0.8814157960   -0.8509858959
C       -2.6840716487   -0.0138021290    0.0316994094
C       -1.9743080290    0.8804279217    0.8858564812
C       -0.5557104629    0.9087046740    0.8654989938
C        1.6665979217    0.0305448700   -0.0298112487
N        2.3360875172   -0.2364725955    1.1469436276
N        2.3760653080    0.1660297756   -1.2053736790
H       -0.0061597794   -1.5348090661   -1.5717380404
H       -2.5310796099   -1.5879783946   -1.4991261259
H       -3.7917138533   -0.0387988764    0.0585711694
H       -2.5271439166    1.5521751840    1.5710907861
H       -0.0016095976    1.6051354824    1.5245572327
H        3.3868674830   -0.2210452327    1.2285298371
H        1.7807827801   -0.3805314864    2.0288153471
H        3.4250477955    0.0793541972   -1.2570386685
H        1.8613426324    0.4052320004   -2.0910351111
