18   
Iteration 0 Energy -376.54215799
C        0.1665002000   -0.0009122000    0.0030591000
C       -0.5519873000   -1.2270553000   -0.2114607000
C       -1.9694713000   -1.2181988000   -0.2169143000
C       -2.6790823000    0.0002684000   -0.0005999000
C       -1.9689621000    1.2183600000    0.2163380000
C       -0.5514800000    1.2263216000    0.2128541000
C        1.6734669000   -0.0009297000   -0.0008434000
N        2.3780849000   -1.1192193000    0.4041780000
N        2.3765175000    1.1191429000   -0.4036211000
H       -0.0085387000   -2.1706825000   -0.4128841000
H       -2.5237451000   -2.1600417000   -0.3963472000
H       -3.7876767000    0.0006721000   -0.0015399000
H       -2.5228937000    2.1607826000    0.3937843000
H       -0.0077956000    2.1698636000    0.4140130000
H        3.4289057000   -1.1675176000    0.3720381000
H        1.8643823000   -1.9410223000    0.8093844000
H        3.4273636000    1.1686456000   -0.3741746000
H        1.8613709000    1.9402210000   -0.8084470000
18   
Iteration 1 Energy -376.54206516
C        0.1664334359    0.0056541966   -0.0082284508
C       -0.5489804550   -1.2286728857   -0.1822521068
C       -1.9664778768   -1.2236709659   -0.1866147065
C       -2.6789796422   -0.0017833863   -0.0014314572
C       -1.9719050501    1.2228099550    0.1868821708
C       -0.5544652897    1.2343855343    0.1818762424
C        1.6732731011    0.0058340799    0.0103334538
N        2.3725084327   -1.1356406642    0.3556659294
N        2.3816572179    1.1355013740   -0.3545291923
H       -0.0032009717   -2.1765871200   -0.3551837178
H       -2.5184692901   -2.1715545108   -0.3392352323
H       -3.7875634345   -0.0043166655   -0.0009461408
H       -2.5281485202    2.1673163685    0.3449079171
H       -0.0130029687    2.1828285451    0.3651517589
H        3.4229796018   -1.1899720332    0.3217670065
H        1.8536222177   -1.9741945464    0.7175756769
H        3.4327612380    1.1789332721   -0.3246897479
H        1.8703283635    1.9717227133   -0.7322780225
18   
Iteration 2 Energy -376.54192109
C        0.1672764138   -0.0009090445   -0.0173915598
C       -0.5601735919   -1.2330702843   -0.1618611312
C       -1.9774128245   -1.2243758785   -0.1629449930
C       -2.6869063371    0.0026170483   -0.0016357667
C       -1.9737566675    1.2272096043    0.1603852052
C       -0.5564423626    1.2298184975    0.1538963386
C        1.6750126756   -0.0027363915    0.0097858590
N        2.3907460753   -1.1455606484    0.3153705648
N        2.3801950350    1.1424184625   -0.3115846052
H       -0.0241078331   -2.1887061520   -0.3205096322
H       -2.5321569358   -2.1738727155   -0.2941875099
H       -3.7955308792    0.0039065167    0.0012792768
H       -2.5247155772    2.1775377875    0.3011791965
H       -0.0150421674    2.1814501288    0.3192547268
H        3.4421283209   -1.1713372866    0.2833056947
H        1.8908556119   -2.0030274031    0.6578716351
H        3.4309135431    1.1848474316   -0.2758034762
H        1.8694105132    1.9924035353   -0.6569813868
18   
Iteration 3 Energy -376.54160550
C        0.1658688955    0.0032483247   -0.0283598483
C       -0.5553272528   -1.2377541008   -0.1303686566
C       -1.9720440580   -1.2319299875   -0.1262829835
C       -2.6831346821   -0.0017944652    0.0013260730
C       -1.9730246196    1.2289543595    0.1262688027
C       -0.5562579918    1.2393656968    0.1174548475
C        1.6726434086    0.0046294497    0.0081144645
N        2.3760675131   -1.1605176643    0.2539601432
N        2.3874236416    1.1596085012   -0.2562935110
H       -0.0192917002   -2.1973027814   -0.2639759820
H       -2.5250249955   -2.1862846058   -0.2256443949
H       -3.7917850818   -0.0030477137    0.0085203557
H       -2.5271886129    2.1806365492    0.2428709601
H       -0.0202680844    2.1981728701    0.2572786688
H        3.4273188137   -1.1912867008    0.2328454961
H        1.8694951888   -2.0287556121    0.5563430686
H        3.4380633928    1.1922534143   -0.2155420248
H        1.8856928809    2.0304733740   -0.5589738748
18   
Iteration 4 Energy -376.54165473
C        0.1667657335    0.0016378127   -0.0239046792
C       -0.5573029690   -1.2375348787   -0.1257812081
C       -1.9740982825   -1.2307866570   -0.1210261740
C       -2.6861747676   -0.0007553949    0.0023557244
C       -1.9760999266    1.2305276512    0.1214285626
C       -0.5592235323    1.2368164206    0.1129435586
C        1.6739587357    0.0029641501    0.0042832177
N        2.3833489415   -1.1608000925    0.2422622821
N        2.3891024353    1.1603391815   -0.2479473851
H       -0.0240449073   -2.1989112239   -0.2573917636
H       -2.5269338636   -2.1855828338   -0.2167454465
H       -3.7948251180   -0.0022512553    0.0090788107
H       -2.5289900872    2.1836994067    0.2320346649
H       -0.0254777241    2.1977287320    0.2455017452
H        3.4347062478   -1.1953237497    0.2309233035
H        1.8770644969   -2.0304004321    0.5408086523
H        3.4397992375    1.1924000795   -0.2086319297
H        1.8883559990    2.0349520211   -0.5408907137
18   
Iteration 5 Energy -376.54166497
C        0.1661079945    0.0010844363   -0.0165965661
C       -0.5613234354   -1.2360393055   -0.1202284174
C       -1.9782437773   -1.2314360067   -0.1164759499
C       -2.6890879547   -0.0004571358    0.0023876206
C       -1.9756249660    1.2294628587    0.1162863882
C       -0.5586551549    1.2378778855    0.1095090664
C        1.6733872098   -0.0001098950    0.0025067606
N        2.3871905118   -1.1636456021    0.2300182028
N        2.3891882942    1.1589176574   -0.2385445782
H       -0.0299246933   -2.1988980992   -0.2482186826
H       -2.5307257034   -2.1866863462   -0.2098013661
H       -3.7977582805   -0.0000055570    0.0076308205
H       -2.5277898313    2.1837869817    0.2199544306
H       -0.0266770996    2.2007957890    0.2344561709
H        3.4391020171   -1.1786034646    0.2258926927
H        1.8908518702   -2.0401219697    0.5254673085
H        3.4402022816    1.1841357282   -0.2038380724
H        1.8917524281    2.0388221160   -0.5212842011
18   
Iteration 6 Energy -376.54167236
C        0.1659411168    0.0001123109   -0.0156278779
C       -0.5582856434   -1.2387414519   -0.1201300762
C       -1.9751889885   -1.2302285551   -0.1173390881
C       -2.6864500750    0.0005954854    0.0017166785
C       -1.9761752985    1.2320915152    0.1174817030
C       -0.5592571044    1.2365692098    0.1109020749
C        1.6730122896    0.0005269976    0.0038806363
N        2.3853086611   -1.1639726539    0.2312700550
N        2.3877878941    1.1597063797   -0.2399285592
H       -0.0262899328   -2.2014442024   -0.2468606060
H       -2.5285987847   -2.1847745705   -0.2121107140
H       -3.7951078501   -0.0001528495    0.0060419192
H       -2.5282881036    2.1864434836    0.2216184992
H       -0.0257335971    2.1984714833    0.2371275060
H        3.4371443679   -1.1827268927    0.2271369505
H        1.8866036886   -2.0390755370    0.5268509706
H        3.4388500568    1.1877331595   -0.2086653909
H        1.8882189091    2.0379556842   -0.5241235166
18   
Iteration 7 Energy -376.54167224
C        0.1669418828    0.0025491408   -0.0156830848
C       -0.5576552561   -1.2362126581   -0.1203594567
C       -1.9745783571   -1.2313134018   -0.1186523814
C       -2.6865962997   -0.0011035252    0.0010727750
C       -1.9753906765    1.2297221078    0.1188233343
C       -0.5584700802    1.2385156834    0.1128321858
C        1.6740630471    0.0027073794    0.0049002410
N        2.3835492843   -1.1632772067    0.2333557696
N        2.3895934744    1.1607705065   -0.2425695982
H       -0.0240671965   -2.1980626570   -0.2462853842
H       -2.5265737948   -2.1865503823   -0.2148910276
H       -3.7952697714   -0.0019364618    0.0051568272
H       -2.5286081465    2.1832393292    0.2243850373
H       -0.0258718993    2.2006175801    0.2417564541
H        3.4351171183   -1.1931173304    0.2290070789
H        1.8789762011   -2.0344714201    0.5303193712
H        3.4407410220    1.1895269359   -0.2142182883
H        1.8894305730    2.0377393093   -0.5295747929
