18   
Iteration 0 Energy -376.54215770
C        0.1673659000   -0.0006398000   -0.0022600000
C       -0.5512697000   -1.2182128000    0.2561799000
C       -1.9687425000   -1.2087237000    0.2612875000
C       -2.6772440000    0.0016482000    0.0005894000
C       -1.9672381000    1.2110886000   -0.2605875000
C       -0.5497791000    1.2184990000   -0.2570923000
C        1.6743070000   -0.0010949000    0.0011690000
N        2.3778362000   -1.1337446000   -0.3639776000
N        2.3776657000    1.1327160000    0.3633605000
H       -0.0076447000   -2.1538918000    0.4912880000
H       -2.5236016000   -2.1431066000    0.4746919000
H       -3.7858201000    0.0024910000    0.0012905000
H       -2.5209733000    2.1464945000   -0.4724365000
H       -0.0050753000    2.1535639000   -0.4921890000
H        3.4288124000   -1.1823638000   -0.3366436000
H        1.8625994000   -1.9648137000   -0.7478719000
H        3.4289349000    1.1774620000    0.3401146000
H        1.8635480000    1.9633278000    0.7498261000
18   
Iteration 1 Energy -376.54189284
C        0.1677714535   -0.0096790814   -0.0136234858
C       -0.5555658734   -1.2152019813    0.2848384697
C       -1.9730204488   -1.2001789568    0.2909112471
C       -2.6797460507    0.0043385438    0.0000510989
C       -1.9637574218    1.2038746731   -0.2888773749
C       -0.5462175717    1.2072526956   -0.2871926835
C        1.6744993454   -0.0096526317    0.0120963786
N        2.3850941095   -1.1171081981   -0.4118063321
N        2.3713146970    1.1158814281    0.4107173274
H       -0.0154799113   -2.1454124587    0.5481704488
H       -2.5302658398   -2.1266767917    0.5307343027
H       -3.7883442004    0.0091501572    0.0022942622
H       -2.5140284451    2.1368185417   -0.5196444681
H        0.0007833264    2.1363926692   -0.5397684863
H        3.4364804809   -1.1565412845   -0.3857747702
H        1.8767808977   -1.9316940385   -0.8379626375
H        3.4222068373    1.1685863235    0.3881162830
H        1.8521978433    1.9305435571    0.8234749616
18   
Iteration 2 Energy -376.54162566
C        0.1647657992   -0.0083264659   -0.0228383431
C       -0.5485507207   -1.2112600331    0.3054207434
C       -1.9661031188   -1.1985462403    0.3158022849
C       -2.6680932373    0.0027889862    0.0011598918
C       -1.9611678712    1.2011006591   -0.3148758515
C       -0.5436444616    1.2068846865   -0.3151125655
C        1.6709793311   -0.0057937614    0.0113875269
N        2.3736375057   -1.1028252289   -0.4508571639
N        2.3660205919    1.1053132219    0.4506885390
H       -0.0008385615   -2.1335742904    0.5812604537
H       -2.5235225089   -2.1193905194    0.5763038540
H       -3.7765482776    0.0064320133    0.0063372320
H       -2.5155402387    2.1275024914   -0.5618812560
H        0.0058929364    2.1297892664   -0.5847854846
H        3.4242989050   -1.1633578538   -0.4262080544
H        1.8525891138   -1.9013180274   -0.8927228453
H        3.4171440539    1.1608503132    0.4345373804
H        1.8436567411    1.9025914910    0.8931309983
18   
Iteration 3 Energy -376.54108418
C        0.1675200971   -0.0152721965   -0.0355361255
C       -0.5522654189   -1.2011504092    0.3341881427
C       -1.9704496541   -1.1816148858    0.3501299918
C       -2.6785980204    0.0072379956    0.0046967262
C       -1.9612252438    1.1892615990   -0.3465780772
C       -0.5430257840    1.1917209120   -0.3509919806
C        1.6749211483   -0.0130965667    0.0090841039
N        2.3872155313   -1.0787120298   -0.5075317936
N        2.3593117191    1.0809091889    0.5023060452
H       -0.0054790182   -2.1174344734    0.6311457822
H       -2.5274095716   -2.0933406000    0.6415410656
H       -3.7870709862    0.0145795092    0.0148582471
H       -2.5114546000    2.1117545277   -0.6161997342
H        0.0091711346    2.1058857457   -0.6439006068
H        3.4380874431   -1.1372159039   -0.4750315614
H        1.8708865141   -1.8624459297   -0.9810279401
H        3.4103601282    1.1445922496    0.4950859390
H        1.8274619828    1.8512023015    0.9807168164
18   
Iteration 4 Energy -376.54111360
C        0.1643622048   -0.0152849242   -0.0330057294
C       -0.5545362862   -1.2017969384    0.3371097224
C       -1.9725685191   -1.1834645432    0.3554427623
C       -2.6733835524    0.0087562973    0.0070469303
C       -1.9605105321    1.1918303144   -0.3497740186
C       -0.5424722062    1.1920005200   -0.3547532445
C        1.6734227169   -0.0147636868    0.0042622709
N        2.3877864812   -1.0760273417   -0.5167727048
N        2.3559192737    1.0761379746    0.5062121955
H       -0.0070338650   -2.1183317827    0.6315412818
H       -2.5314309124   -2.0935217795    0.6487219258
H       -3.7817227545    0.0175036712    0.0176749591
H       -2.5115129696    2.1131048007   -0.6221845934
H        0.0124213619    2.1038236817   -0.6499307785
H        3.4387636020   -1.1260961385   -0.4729459562
H        1.8770789896   -1.8639908481   -0.9894904545
H        3.4070116451    1.1410739993    0.5031322223
H        1.8210610358    1.8443369778    0.9847649548
18   
Iteration 5 Energy -376.54112796
C        0.1637702981   -0.0136373375   -0.0281455680
C       -0.5507569856   -1.2030327433    0.3404687774
C       -1.9687569401   -1.1820314942    0.3568702844
C       -2.6729419905    0.0075789857    0.0064652252
C       -1.9595922310    1.1895445497   -0.3524929114
C       -0.5415657288    1.1925830012   -0.3566288478
C        1.6736825630   -0.0110659171    0.0047842579
N        2.3811114026   -1.0728582567   -0.5235303775
N        2.3572730961    1.0768478848    0.5121137013
H       -0.0027237418   -2.1196507893    0.6337558160
H       -2.5272081595   -2.0921841473    0.6504213423
H       -3.7813226998    0.0147714927    0.0158360030
H       -2.5111813636    2.1094016656   -0.6283176253
H        0.0133976490    2.1041526560   -0.6526173930
H        3.4313742062   -1.1374734630   -0.4812717548
H        1.8612283556   -1.8585764436   -0.9898577561
H        3.4083639074    1.1427905128    0.5100440518
H        1.8214591045    1.8454354706    0.9889176048
18   
Iteration 6 Energy -376.54113269
C        0.1657391244   -0.0123493091   -0.0260866397
C       -0.5522655909   -1.1999839351    0.3401649291
C       -1.9704513977   -1.1833233407    0.3559369155
C       -2.6743932058    0.0063185198    0.0051512293
C       -1.9614886805    1.1889898934   -0.3522507512
C       -0.5432768637    1.1915794179   -0.3546281453
C        1.6758515173   -0.0099623997    0.0062817310
N        2.3814734229   -1.0717989750   -0.5243691028
N        2.3604609981    1.0773937666    0.5131497096
H       -0.0044696934   -2.1164228406    0.6342785714
H       -2.5278438760   -2.0945428169    0.6483344431
H       -3.7827671275    0.0129400000    0.0132268359
H       -2.5130526761    2.1087393548   -0.6285816936
H        0.0104067754    2.1042876449   -0.6491650481
H        3.4312973231   -1.1446532502   -0.4842796338
H        1.8569865607   -1.8574250724   -0.9856173869
H        3.4115713176    1.1423850347    0.5079005417
H        1.8257701132    1.8483582884    0.9873082793
18   
Iteration 7 Energy -376.54114094
C        0.1646215602   -0.0133934767   -0.0262983328
C       -0.5531813707   -1.2011857830    0.3395515536
C       -1.9713487794   -1.1826515450    0.3546239123
C       -2.6754100571    0.0072862722    0.0049383393
C       -1.9613247613    1.1898031195   -0.3506067173
C       -0.5431077348    1.1919093992   -0.3528846437
C        1.6743766826   -0.0122728332    0.0059280329
N        2.3826755212   -1.0725748480   -0.5243708362
N        2.3586125606    1.0757101419    0.5113328886
H       -0.0061282713   -2.1179197271    0.6343694292
H       -2.5293310188   -2.0937767463    0.6461074294
H       -3.7837993964    0.0144016825    0.0130268193
H       -2.5122263187    2.1102454280   -0.6259094113
H        0.0109489266    2.1048189783   -0.6461578608
H        3.4328219377   -1.1380425334   -0.4796129865
H        1.8627723974   -1.8623461943   -0.9838719505
H        3.4096163693    1.1415151499    0.5030414505
H        1.8240698223    1.8478345103    0.9837870596
18   
Iteration 8 Energy -376.54114270
C        0.1639523447   -0.0133708337   -0.0259484867
C       -0.5537856529   -1.2016212465    0.3390873852
C       -1.9719483980   -1.1829651412    0.3540607420
C       -2.6756648190    0.0072620103    0.0048183387
C       -1.9612267829    1.1898204282   -0.3499413511
C       -0.5430528979    1.1924361230   -0.3522520585
C        1.6737640784   -0.0125556473    0.0058254372
N        2.3816002284   -1.0725642550   -0.5257202618
N        2.3586551143    1.0748450086    0.5117689199
H       -0.0068810458   -2.1184912552    0.6337013154
H       -2.5301082315   -2.0941557605    0.6449923941
H       -3.7840579568    0.0145919979    0.0126968639
H       -2.5120883079    2.1104007182   -0.6248377361
H        0.0110681126    2.1054707378   -0.6451000670
H        3.4315291444   -1.1394032883   -0.4781587787
H        1.8612359173   -1.8641413528   -0.9815284983
H        3.4094537536    1.1435712255    0.5018806853
H        1.8233967692    1.8478094859    0.9819525355
18   
Iteration 9 Energy -376.54114356
C        0.1627258288   -0.0138714459   -0.0251668854
C       -0.5545355808   -1.2030430511    0.3382537567
C       -1.9726691989   -1.1829401253    0.3525495301
C       -2.6762878459    0.0076816944    0.0044125019
C       -1.9623999566    1.1909733313   -0.3489220649
C       -0.5442739321    1.1922471287   -0.3505886897
C        1.6725837061   -0.0128274018    0.0060039285
N        2.3801010276   -1.0720615711   -0.5277054702
N        2.3578483846    1.0739271349    0.5129244496
H       -0.0081206276   -2.1203569245    0.6323780830
H       -2.5313547465   -2.0941932350    0.6422445697
H       -3.7846828537    0.0148139527    0.0120580403
H       -2.5129425471    2.1120187402   -0.6229499906
H        0.0102044013    2.1053732363   -0.6424907325
H        3.4295630369   -1.1423580728   -0.4752657096
H        1.8586780013   -1.8669711104   -0.9763919980
H        3.4085067301    1.1434551463    0.4976202697
H        1.8232528376    1.8497450909    0.9790908850
