18   
Iteration 0 Energy -376.54086211
C        0.1676159000   -0.0000556000    0.0003022000
C       -0.5633209000   -1.2404106000    0.0217454000
C       -1.9799435000   -1.2346867000    0.0214529000
C       -2.6917184000    0.0009104000   -0.0000751000
C       -1.9790929000    1.2360181000   -0.0213154000
C       -0.5624616000    1.2408245000   -0.0212277000
C        1.6772224000   -0.0005767000    0.0007166000
N        2.3977968000   -1.1818185000    0.0215180000
N        2.3975758000    1.1807750000   -0.0183999000
H       -0.0410065000   -2.2163460000    0.0386577000
H       -2.5313232000   -2.1949294000    0.0380714000
H       -3.8003997000    0.0012921000   -0.0002604000
H       -2.5298404000    2.1966223000   -0.0379207000
H       -0.0394792000    2.2163993000   -0.0377702000
H        3.4492828000   -1.1941138000    0.0220712000
H        1.9043794000   -2.1071223000    0.0384267000
H        3.4490572000    1.1919795000   -0.0230197000
H        1.9045185000    2.1061819000   -0.0399572000
18   
Iteration 1 Energy -376.54079665
C        0.1686505225   -0.0006750316   -0.0109000015
C       -0.5627825541   -1.2393998765    0.0512107610
C       -1.9794440042   -1.2327058316    0.0512489712
C       -2.6933734328    0.0006142964   -0.0022342693
C       -1.9786232882    1.2336219644   -0.0519995724
C       -0.5619635544    1.2394021694   -0.0525805310
C        1.6780997387   -0.0003463035    0.0133334824
N        2.3970731851   -1.1820068934   -0.0284977941
N        2.3988693051    1.1808754889    0.0334157730
H       -0.0408796916   -2.2145806460    0.0980533376
H       -2.5303801343   -2.1923229420    0.0948892857
H       -3.8020900603    0.0010145167   -0.0015969729
H       -2.5289375698    2.1938877335   -0.0886984858
H       -0.0395255608    2.2148024724   -0.0871223799
H        3.4485337725   -1.1946609034   -0.0286618383
H        1.9029159757   -2.1065194611   -0.0602800884
H        3.4503259611    1.1938460673    0.0298150597
H        1.9053044921    2.1061646006    0.0436301958
18   
Iteration 2 Energy -376.54086584
C        0.1683166540   -0.0017523797   -0.0166892506
C       -0.5627850383   -1.2389568575    0.0741073480
C       -1.9794019996   -1.2323280508    0.0761526433
C       -2.6910383272    0.0010374528   -0.0017311857
C       -1.9778121807    1.2336671147   -0.0770191300
C       -0.5612014846    1.2381585803   -0.0785543484
C        1.6776723837   -0.0014371742    0.0123885036
N        2.3977588820   -1.1802207201   -0.0717345863
N        2.3972580988    1.1790350109    0.0745186237
H       -0.0405327390   -2.2125236934    0.1446523757
H       -2.5310868679   -2.1902513853    0.1422610146
H       -3.7997227521    0.0019031692    0.0006331241
H       -2.5282396980    2.1929778306   -0.1327335753
H       -0.0378604592    2.2119741943   -0.1364016326
H        3.4492027832   -1.1930419114   -0.0649856557
H        1.9040723483   -2.1030203514   -0.1400149399
H        3.4487037897    1.1934736590    0.0713747587
H        1.9025784925    2.1023251290    0.1268056946
18   
Iteration 3 Energy -376.54112559
C        0.1680567284   -0.0023959130   -0.0212322414
C       -0.5615973012   -1.2363401037    0.1119112965
C       -1.9782947174   -1.2290284524    0.1163399160
C       -2.6903085564    0.0010633111   -0.0008218606
C       -1.9765301405    1.2302864852   -0.1171106596
C       -0.5598348552    1.2358299472   -0.1196312032
C        1.6769403370   -0.0020786700    0.0109748707
N        2.3970709523   -1.1740244967   -0.1410994269
N        2.3943741711    1.1738918696    0.1414213757
H       -0.0377294712   -2.2055309774    0.2211643269
H       -2.5299852824   -2.1838427222    0.2177958637
H       -3.7989946225    0.0022470889    0.0033680607
H       -2.5272133401    2.1870159129   -0.2050943654
H       -0.0354373178    2.2057970986   -0.2187329575
H        3.4483711443   -1.1912505859   -0.1221070533
H        1.9019363412   -2.0892633506   -0.2730732767
H        3.4458442428    1.1884842073    0.1340448810
H        1.8988610775    2.0900739962    0.2650308830
18   
Iteration 4 Energy -376.54144501
C        0.1675176285    0.0012067321   -0.0117033080
C       -0.5571200909   -1.2345182188    0.1275163907
C       -1.9739461756   -1.2293203899    0.1333919775
C       -2.6852476139   -0.0000430218    0.0023552305
C       -1.9766790607    1.2304363912   -0.1329534702
C       -0.5598963938    1.2369217182   -0.1351334107
C        1.6759089368    0.0014791975   -0.0023752739
N        2.3886837512   -1.1726058616   -0.1706592566
N        2.3947143807    1.1717098320    0.1659999837
H       -0.0281124441   -2.1991973502    0.2515611547
H       -2.5252035770   -2.1830535252    0.2469585988
H       -3.7938864101   -0.0007657636    0.0065564854
H       -2.5298306951    2.1839327602   -0.2391969871
H       -0.0334916892    2.2024018366   -0.2635105071
H        3.4395556992   -1.1993320113   -0.1380271121
H        1.8868171700   -2.0799551252   -0.3308301605
H        3.4461176227    1.1928422907    0.1523452582
H        1.8968598774    2.0784701376    0.3408842576
18   
Iteration 5 Energy -376.54142459
C        0.1699916537    0.0008271298    0.0159219176
C       -0.5632556534   -1.2286382795    0.1608382174
C       -1.9805997816   -1.2175379468    0.1633946298
C       -2.6992185966    0.0040527747    0.0047972401
C       -1.9745738345    1.2211964649   -0.1609925429
C       -0.5571734470    1.2291159625   -0.1595723801
C        1.6776496955   -0.0029638211   -0.0186120439
N        2.4040627726   -1.1628342880   -0.2199809864
N        2.3861150300    1.1623727321    0.2099988537
H       -0.0364233917   -2.1894194689    0.3188307171
H       -2.5322097383   -2.1685456685    0.2958820948
H       -3.8080305922    0.0065329451    0.0042359071
H       -2.5227044653    2.1727713378   -0.3031473314
H       -0.0244040553    2.1832373051   -0.3383581834
H        3.4543615422   -1.1841012361   -0.1657593517
H        1.9123148829   -2.0596979076   -0.4544255505
H        3.4371176507    1.1889029790    0.1756555694
H        1.8838048459    2.0451880380    0.4750779943
18   
Iteration 6 Energy -376.54161485
C        0.1667933610    0.0017180449    0.0182570540
C       -0.5567075441   -1.2341141275    0.1597805965
C       -1.9735184297   -1.2281827377    0.1595395253
C       -2.6803120231    0.0008019490    0.0017529800
C       -1.9728124778    1.2289791169   -0.1580249895
C       -0.5559452046    1.2339197186   -0.1539026338
C        1.6738226553    0.0022025760   -0.0089581511
N        2.3850399521   -1.1672290845   -0.2084610638
N        2.3869076866    1.1688542099    0.2026796720
H       -0.0245020099   -2.1923843303    0.3156459725
H       -2.5274805027   -2.1787790667    0.2861231239
H       -3.7889166210    0.0007256611   -0.0011794576
H       -2.5258838807    2.1785476550   -0.2956666920
H       -0.0208786074    2.1888209898   -0.3210708748
H        3.4355912850   -1.1978509220   -0.1664074370
H        1.8825924665   -2.0578335966   -0.4446011219
H        3.4377875522    1.1956419404    0.1653352598
H        1.8862630053    2.0567415560    0.4531266716
18   
Iteration 7 Energy -376.54162033
C        0.1696957193    0.0032759294    0.0128885708
C       -0.5540502187   -1.2320663461    0.1546238023
C       -1.9710226000   -1.2252493923    0.1532312298
C       -2.6873505932   -0.0012133973   -0.0000236743
C       -1.9752363866    1.2251450780   -0.1527540094
C       -0.5582480899    1.2342865958   -0.1486546492
C        1.6772610102    0.0044179991   -0.0043436514
N        2.3812042841   -1.1710439751   -0.1951187656
N        2.3965122020    1.1701629922    0.1929413873
H       -0.0216974909   -2.1911843228    0.3054159810
H       -2.5218747622   -2.1780394192    0.2759663804
H       -3.7960698099   -0.0033787098   -0.0028158759
H       -2.5282781418    2.1755942857   -0.2837301100
H       -0.0280350592    2.1938441022   -0.3031605849
H        3.4320375813   -1.2075747626   -0.1666404552
H        1.8719487383   -2.0604518163   -0.4211474163
H        3.4473759810    1.2020919525    0.1599775902
H        1.8956391454    2.0619322283    0.4274050257
18   
Iteration 8 Energy -376.54165255
C        0.1680999521    0.0014472749    0.0132366679
C       -0.5590030123   -1.2318726467    0.1565511425
C       -1.9759238302   -1.2259365965    0.1548513214
C       -2.6868074938    0.0009434841   -0.0006255722
C       -1.9748186670    1.2272804873   -0.1545465982
C       -0.5578735465    1.2333638025   -0.1495820010
C        1.6759302429   -0.0001830229   -0.0055251546
N        2.3904092502   -1.1695781782   -0.1951592859
N        2.3910920119    1.1670367157    0.1945551620
H       -0.0279723780   -2.1912240881    0.3099563408
H       -2.5286227598   -2.1775559286    0.2788698001
H       -3.7954739305    0.0009715357   -0.0038764987
H       -2.5267904281    2.1781876980   -0.2869532723
H       -0.0257220452    2.1917311179   -0.3048017227
H        3.4416887270   -1.1951499455   -0.1695005094
H        1.8898173128   -2.0619271745   -0.4286427151
H        3.4420474384    1.1953395496    0.1611437221
H        1.8903805173    2.0575853082    0.4344325900
18   
Iteration 9 Energy -376.54165617
C        0.1670382326    0.0024284977    0.0171890722
C       -0.5564820429   -1.2329134549    0.1618273943
C       -1.9733425421   -1.2257700464    0.1593826839
C       -2.6846180400    0.0002578750   -0.0007314498
C       -1.9732033644    1.2263884290   -0.1589673667
C       -0.5563514844    1.2345707270   -0.1532919124
C        1.6741302043    0.0016657074   -0.0062022634
N        2.3853999967   -1.1691554860   -0.1992737714
N        2.3888172480    1.1679391134    0.2009670849
H       -0.0241087710   -2.1907061426    0.3203049372
H       -2.5262815809   -2.1768321329    0.2864391623
H       -3.7932855773   -0.0002864135   -0.0049454203
H       -2.5259638553    2.1760975080   -0.2964316423
H       -0.0230212307    2.1913380946   -0.3150871887
H        3.4367462091   -1.1937523180   -0.1765632026
H        1.8844230384   -2.0570178500   -0.4487943781
H        3.4398408725    1.1892563168    0.1647959456
H        1.8915789123    2.0569886812    0.4540263724
18   
Iteration 10 Energy -376.54166863
C        0.1683219330    0.0022331687    0.0180270606
C       -0.5567476018   -1.2320992900    0.1633353159
C       -1.9736535766   -1.2257295266    0.1606384977
C       -2.6846258111    0.0002846190   -0.0010235987
C       -1.9738189120    1.2266119994   -0.1603066122
C       -0.5569113288    1.2329993148   -0.1541039740
C        1.6754398613    0.0017754179   -0.0052860382
N        2.3852668587   -1.1701275647   -0.1977119676
N        2.3909004790    1.1677468339    0.2019929358
H       -0.0245106939   -2.1896755542    0.3231949214
H       -2.5265548053   -2.1767173768    0.2885527343
H       -3.7932789169   -0.0003978203   -0.0056242891
H       -2.5262852027    2.1763452169   -0.2989604224
H       -0.0234940791    2.1895067404   -0.3168066946
H        3.4367032554   -1.1968076050   -0.1811371574
H        1.8827056787   -2.0548140669   -0.4552711259
H        3.4418764527    1.1946296153    0.1674365744
H        1.8915853354    2.0547750769    0.4578856420
18   
Iteration 11 Energy -376.54167429
C        0.1679745772    0.0017823979    0.0156610830
C       -0.5574866563   -1.2321776652    0.1624861304
C       -1.9743563366   -1.2256097579    0.1597661525
C       -2.6850773661    0.0006530242   -0.0015011877
C       -1.9730476911    1.2264616388   -0.1596839368
C       -0.5561277382    1.2337686661   -0.1535823413
C        1.6752146906    0.0002532708   -0.0037766474
N        2.3868899312   -1.1715878446   -0.1910765208
N        2.3908151402    1.1667737529    0.1995706204
H       -0.0253594417   -2.1900059062    0.3213940429
H       -2.5274198749   -2.1765212824    0.2874919694
H       -3.7937438538    0.0006190050   -0.0059557771
H       -2.5253345990    2.1765044871   -0.2967654801
H       -0.0228881088    2.1909085136   -0.3129692282
H        3.4386050681   -1.1950969128   -0.1847502852
H        1.8857207422   -2.0556777955   -0.4536665876
H        3.4419062579    1.1957918535    0.1696072710
H        1.8902459160    2.0538195904    0.4527863388
18   
Iteration 12 Energy -376.54167644
C        0.1686690397    0.0017677056    0.0150673307
C       -0.5570044097   -1.2317820787    0.1635480880
C       -1.9739020719   -1.2247787590    0.1608316200
C       -2.6855945734    0.0008248642   -0.0015752268
C       -1.9741459814    1.2267656455   -0.1610142625
C       -0.5571860815    1.2327155960   -0.1547491418
C        1.6759653034    0.0006276337   -0.0031078688
N        2.3867771281   -1.1723735488   -0.1877684826
N        2.3918409972    1.1669459810    0.2003158494
H       -0.0247705062   -2.1894106731    0.3232557869
H       -2.5267646759   -2.1756522865    0.2896712761
H       -3.7942639203    0.0002169103   -0.0058686402
H       -2.5262862855    2.1768038221   -0.2988536511
H       -0.0242397888    2.1898613153   -0.3147665501
H        3.4386314631   -1.1927507066   -0.1901698041
H        1.8863177728   -2.0540801366   -0.4599626900
H        3.4431441810    1.1909794579    0.1731763694
H        1.8935180144    2.0542567661    0.4571586227
18   
Iteration 13 Energy -376.54167740
C        0.1685427184    0.0023419897    0.0161869463
C       -0.5567976134   -1.2314426836    0.1649521305
C       -1.9736848773   -1.2253558798    0.1625326041
C       -2.6845743606    0.0004802094   -0.0011705538
C       -1.9729836768    1.2261398629   -0.1623903339
C       -0.5560593160    1.2334813796   -0.1563369063
C        1.6756098982    0.0010953200   -0.0037768247
N        2.3857803776   -1.1721237989   -0.1898850849
N        2.3912819270    1.1670651802    0.2025587684
H       -0.0240933363   -2.1885504662    0.3260065973
H       -2.5265592056   -2.1760859158    0.2924792105
H       -3.7932396107    0.0001736801   -0.0055399957
H       -2.5254705918    2.1757142374   -0.3019544713
H       -0.0226910887    2.1899462222   -0.3193843767
H        3.4376074625   -1.1943976534   -0.1919635734
H        1.8845568647   -2.0518648959   -0.4670277373
H        3.4425921094    1.1916618987    0.1758340286
H        1.8926452110    2.0529019465    0.4640414437
