18   
Iteration 0 Energy -376.54086242
C        0.1546859000   -0.0039090000   -0.0072895000
C       -0.5841631000   -0.5339481000   -1.1236981000
C       -2.0007353000   -0.5273639000   -1.1101948000
C       -2.7053679000    0.0046616000    0.0097199000
C       -1.9843916000    0.5324263000    1.1212082000
C       -0.5677446000    0.5305808000    1.1177248000
C        1.6642591000   -0.0080686000   -0.0163675000
N        2.3924048000    0.4966630000    1.0467312000
N        2.3766485000   -0.5181202000   -1.0875111000
H       -0.0681446000   -0.9544852000   -2.0082421000
H       -2.5580508000   -0.9378556000   -1.9746248000
H       -3.8140358000    0.0079558000    0.0162814000
H       -2.5289279000    0.9461758000    1.9922063000
H       -0.0387439000    0.9477953000    1.9961460000
H        3.4439441000    0.4992175000    1.0526321000
H        1.9045749000    0.8935298000    1.8860461000
H        3.4280178000   -0.5217108000   -1.1066453000
H        1.8771782000   -0.9085484000   -1.9230005000
18   
Iteration 1 Energy -376.54078755
C        0.1548871671   -0.0326096074    0.0064762410
C       -0.5836789597   -0.5186388272   -1.1300504954
C       -2.0001484410   -0.4983048201   -1.1235219751
C       -2.7047987917    0.0114936422    0.0066321487
C       -1.9842788164    0.5065652688    1.1333352690
C       -0.5677413340    0.4906183114    1.1367055463
C        1.6645040709   -0.0295381103   -0.0055632648
N        2.3910619171    0.5446634283    1.0226965633
N        2.3775589262   -0.5609499794   -1.0658471134
H       -0.0673633509   -0.9169104092   -2.0246579040
H       -2.5570995563   -0.8789509553   -2.0017395144
H       -3.8133893424    0.0261590271    0.0078800719
H       -2.5290685837    0.9074102225    2.0101889796
H       -0.0390738314    0.8865978041    2.0251044458
H        3.4423577727    0.5663717845    1.0160644351
H        1.9036901363    0.9760692656    1.8450619154
H        3.4285971515   -0.5459207971   -1.0948424827
H        1.8784065959   -0.9891257880   -1.8827991466
18   
Iteration 2 Energy -376.54086734
C        0.1548120357   -0.0387286375    0.0089297519
C       -0.5827556923   -0.4990539723   -1.1388944129
C       -1.9991617502   -0.4740548148   -1.1336199453
C       -2.7040906370    0.0140754919    0.0058909686
C       -1.9839199885    0.4839017876    1.1435816002
C       -0.5674427176    0.4644694450    1.1484473289
C        1.6643860609   -0.0303389613   -0.0047759111
N        2.3897019457    0.5852758483    1.0001384041
N        2.3781896058   -0.5959997161   -1.0466721164
H       -0.0659781675   -0.8772039205   -2.0419413271
H       -2.5560176818   -0.8330247019   -2.0209705401
H       -3.8126383404    0.0317638738    0.0058683007
H       -2.5289331797    0.8673424019    2.0280437224
H       -0.0386676205    0.8362571318    2.0472010441
H        3.4409944047    0.6074010513    0.9938180622
H        1.9012322446    1.0451297598    1.8062819976
H        3.4290212228   -0.5754021311   -1.0796598963
H        1.8797619055   -1.0660640094   -1.8407340009
18   
Iteration 3 Energy -376.54114366
C        0.1550159950   -0.0430928413    0.0092981647
C       -0.5817836370   -0.4645545414   -1.1535288324
C       -1.9982245364   -0.4355364345   -1.1484334573
C       -2.7024869569    0.0168343440    0.0062143397
C       -1.9822470876    0.4469501622    1.1595626549
C       -0.5657240928    0.4250347868    1.1642633585
C        1.6641266439   -0.0303541103   -0.0060442364
N        2.3849339908    0.6469230473    0.9618997845
N        2.3790328575   -0.6530376233   -1.0140553554
H       -0.0638249209   -0.8073081249   -2.0699513381
H       -2.5554738855   -0.7610230694   -2.0483667676
H       -3.8109784833    0.0374166761    0.0060078012
H       -2.5271868677    0.7999877065    2.0566415827
H       -0.0353472732    0.7559697076    2.0779788837
H        3.4363373535    0.6674996270    0.9666209424
H        1.8898456826    1.1568764634    1.7332666327
H        3.4295234670   -0.6245093338   -1.0527733271
H        1.8822961735   -1.1876957329   -1.7674616470
18   
Iteration 4 Energy -376.54145609
C        0.1537674298   -0.0150154242   -0.0024550608
C       -0.5794593021   -0.4391358180   -1.1659742578
C       -1.9962181382   -0.4225957274   -1.1549900997
C       -2.6999449856    0.0102331923    0.0075785019
C       -1.9805435603    0.4300012459    1.1654550503
C       -0.5637658909    0.4229280610    1.1657504263
C        1.6621075026   -0.0085067961   -0.0164231438
N        2.3839434692    0.6701236853    0.9494226521
N        2.3728628367   -0.6757125135   -0.9983083371
H       -0.0578977546   -0.7617630236   -2.0877322775
H       -2.5542166828   -0.7422228439   -2.0565572733
H       -3.8085696018    0.0198734104    0.0115127065
H       -2.5265094102    0.7600110930    2.0706397065
H       -0.0302423916    0.7306424155    2.0858723025
H        3.4354341487    0.6593372555    0.9692498616
H        1.8903780985    1.2124008509    1.6998232489
H        3.4237412354   -0.6622459791   -1.0375060806
H        1.8701876241   -1.2430839890   -1.7237150571
18   
Iteration 5 Energy -376.54154957
C        0.1590206917    0.0279124550   -0.0216918447
C       -0.5831249403   -0.3959033186   -1.1790448485
C       -2.0002945246   -0.4044835006   -1.1625394246
C       -2.7034114684   -0.0029423160    0.0115126876
C       -1.9810371904    0.4040617645    1.1720422007
C       -0.5639689945    0.4197836098    1.1586777053
C        1.6672461777    0.0137649572   -0.0296496430
N        2.3920199400    0.6927860608    0.9332759806
N        2.3690067956   -0.7119061749   -0.9753943332
H       -0.0605863170   -0.6813128965   -2.1123131123
H       -2.5584484916   -0.7182673499   -2.0661455966
H       -3.8119734508   -0.0117114547    0.0236886301
H       -2.5246056383    0.7005045006    2.0902700513
H       -0.0261023700    0.6991098186    2.0851197274
H        3.4411080576    0.6468692473    0.9944625650
H        1.8959911316    1.2994969034    1.6311872906
H        3.4203725662   -0.7163291096   -1.0076491009
H        1.8589703477   -1.3179537855   -1.6637957234
18   
Iteration 6 Energy -376.54160388
C        0.1527496688    0.0344042053   -0.0239446430
C       -0.5760845912   -0.3914205790   -1.1892684265
C       -1.9926424999   -0.4030436580   -1.1643762952
C       -2.6943882140   -0.0073790309    0.0128001094
C       -1.9747722964    0.4009593276    1.1746849335
C       -0.5581382781    0.4237267407    1.1649969986
C        1.6594954604    0.0125554997   -0.0276819684
N        2.3813901107    0.6916278551    0.9371810003
N        2.3595601359   -0.7173976995   -0.9715016036
H       -0.0497587807   -0.6670304201   -2.1237561062
H       -2.5532474735   -0.7165903013   -2.0664607357
H       -3.8029050470   -0.0206944886    0.0259721315
H       -2.5207889090    0.6929206853    2.0928350629
H       -0.0164169610    0.7039143179    2.0891866211
H        3.4302672557    0.6378454872    0.9955269862
H        1.8891851102    1.3199021480    1.6188604956
H        3.4108681839   -0.7268383395   -1.0059873221
H        1.8458631516   -1.3239675050   -1.6568793313
18   
Iteration 7 Energy -376.54164120
C        0.1538577489    0.0240801866   -0.0167371753
C       -0.5780458044   -0.3996195649   -1.1809614905
C       -1.9948017947   -0.4071991973   -1.1640954452
C       -2.6984575041   -0.0054786325    0.0099021605
C       -1.9808689757    0.4062459319    1.1718572459
C       -0.5640051050    0.4222216448    1.1651903839
C        1.6615489421    0.0083119048   -0.0202315275
N        2.3895498060    0.6838665960    0.9428459285
N        2.3623399824   -0.7070734941   -0.9746889023
H       -0.0512470422   -0.6839031829   -2.1124566500
H       -2.5527555235   -0.7220295102   -2.0674282981
H       -3.8070319851   -0.0150632621    0.0198885822
H       -2.5281674816    0.7069362435    2.0864517107
H       -0.0264447955    0.7112957365    2.0889086888
H        3.4398353547    0.6378928140    0.9774652050
H        1.9050766736    1.3034239571    1.6377857890
H        3.4134459338   -0.7148179270   -1.0142334598
H        1.8481116106   -1.3047829350   -1.6673118891
18   
Iteration 8 Energy -376.54165117
C        0.1561741668    0.0190281996   -0.0193718949
C       -0.5803616663   -0.4013704696   -1.1818205520
C       -1.9971507368   -0.4051802995   -1.1612943703
C       -2.7003514820   -0.0032840297    0.0129443124
C       -1.9781593043    0.4066498700    1.1725795573
C       -0.5611775894    0.4188347486    1.1621594648
C        1.6638517236    0.0041832498   -0.0245493170
N        2.3838306542    0.6810029170    0.9440059743
N        2.3691010513   -0.7081236803   -0.9782843730
H       -0.0572838941   -0.6869330305   -2.1149591278
H       -2.5570169319   -0.7179955744   -2.0641195455
H       -3.8089563109   -0.0106975215    0.0246040082
H       -2.5222443292    0.7093608544    2.0884145148
H       -0.0215086644    0.7089791744    2.0842586135
H        3.4344128111    0.6524832334    0.9869741348
H        1.8888849765    1.2983046976    1.6334914231
H        3.4204495409   -0.7110714577   -1.0109143745
H        1.8606375786   -1.3091322235   -1.6722657659
18   
Iteration 9 Energy -376.54166310
C        0.1546918867    0.0239957363   -0.0190099245
C       -0.5792196456   -0.3963842786   -1.1831461598
C       -1.9959175457   -0.4035236896   -1.1646719588
C       -2.6977129756   -0.0051956854    0.0115820699
C       -1.9781812843    0.4032329555    1.1734561539
C       -0.5613254757    0.4190652864    1.1649600300
C        1.6620662146    0.0069099976   -0.0234007561
N        2.3866881244    0.6815651821    0.9431441084
N        2.3636192416   -0.7118115074   -0.9747780529
H       -0.0537206697   -0.6771915381   -2.1163995775
H       -2.5552662345   -0.7152594936   -2.0682195671
H       -3.8062718500   -0.0147831393    0.0232350068
H       -2.5241408061    0.7013170541    2.0896980299
H       -0.0218887573    0.7057618548    2.0882916752
H        3.4373789692    0.6517321553    0.9836078886
H        1.8957802961    1.3117712916    1.6238134078
H        3.4149757434   -0.7183672914   -1.0076052209
H        1.8524707297   -1.3174388517   -1.6628524537
18   
Iteration 10 Energy -376.54166745
C        0.1544008428    0.0278322663   -0.0193448747
C       -0.5770174943   -0.3915303772   -1.1852726706
C       -1.9936972010   -0.4002455488   -1.1648721717
C       -2.6982243629   -0.0065197701    0.0113349856
C       -1.9794557951    0.3994210871    1.1744888983
C       -0.5626363835    0.4177596990    1.1658014846
C        1.6615353531    0.0087157054   -0.0219927214
N        2.3868637620    0.6817167303    0.9450579518
N        2.3618586687   -0.7148985368   -0.9705371932
H       -0.0503613207   -0.6675688985   -2.1193549481
H       -2.5524483380   -0.7104100215   -2.0692891542
H       -3.8067903796   -0.0181409841    0.0221246102
H       -2.5259602027    0.6930649733    2.0918385485
H       -0.0233867973    0.7008012196    2.0903606313
H        3.4379446007    0.6499203450    0.9735344334
H        1.9024756522    1.3290587218    1.6144520028
H        3.4131521188   -0.7273085777   -1.0048018264
H        1.8479840051   -1.3255287124   -1.6521942383
18   
Iteration 11 Energy -376.54167466
C        0.1548069870    0.0237581690   -0.0181663478
C       -0.5783486669   -0.3937971743   -1.1837796538
C       -1.9950705162   -0.4007664223   -1.1655284157
C       -2.6974411169   -0.0051503026    0.0113298141
C       -1.9781663741    0.4004758115    1.1743864955
C       -0.5612986975    0.4165312400    1.1664919349
C        1.6619884950    0.0062225203   -0.0221783876
N        2.3851299687    0.6790238309    0.9470047999
N        2.3638885048   -0.7132410408   -0.9728584186
H       -0.0521212744   -0.6721277093   -2.1173693404
H       -2.5541891514   -0.7102616471   -2.0699811305
H       -3.8060093695   -0.0146737362    0.0225242550
H       -2.5244609920    0.6962290437    2.0911829784
H       -0.0216468326    0.7006945045    2.0904817278
H        3.4365673118    0.6573394986    0.9732688913
H        1.8977604273    1.3250687651    1.6155770973
H        3.4152358212   -0.7246882837   -1.0058391981
H        1.8516313221   -1.3240589533   -1.6555546648
18   
Iteration 12 Energy -376.54167428
C        0.1549036549    0.0197501757   -0.0173354328
C       -0.5782072106   -0.3964314368   -1.1834547468
C       -1.9949636208   -0.4004283438   -1.1643819066
C       -2.6985558807   -0.0035545402    0.0113633817
C       -1.9788808106    0.4013511058    1.1744032656
C       -0.5619704060    0.4146240019    1.1661916776
C        1.6621917060    0.0046826838   -0.0214907657
N        2.3872020318    0.6758124749    0.9479220464
N        2.3641605134   -0.7112807377   -0.9746394151
H       -0.0525966063   -0.6772585288   -2.1166536941
H       -2.5541760136   -0.7091481400   -2.0690174807
H       -3.8071603601   -0.0112799191    0.0216771321
H       -2.5247032880    0.6989903058    2.0908727100
H       -0.0223147086    0.6991239261    2.0900470210
H        3.4389357439    0.6647872441    0.9717062884
H        1.8983838080    1.3220241414    1.6152887090
H        3.4156282527   -0.7214797327   -1.0043997768
H        1.8536670382   -1.3232407986   -1.6576946954
