18   
Iteration 0 Energy -376.53606301
C        0.1516875000    0.0513274000    0.0377709000
C       -0.5499529000   -0.9117405000    0.8308628000
C       -1.9696070000   -0.9350616000    0.7935870000
C       -2.6797261000   -0.0108146000   -0.0256676000
C       -1.9731030000    0.9352071000   -0.8231646000
C       -0.5531869000    0.9622249000   -0.8110535000
C        1.6771753000    0.0272717000    0.0180018000
N        2.3426379000   -0.4659590000   -1.0833289000
N        2.3867787000    0.4166819000    1.1329155000
H        0.0060052000   -1.6325512000    1.4611537000
H       -2.5203563000   -1.6786827000    1.4019649000
H       -3.7873351000   -0.0311247000   -0.0464750000
H       -2.5280904000    1.6505336000   -1.4608293000
H       -0.0010579000    1.6942945000   -1.4317138000
H        3.3943124000   -0.4755550000   -1.1650612000
H        1.7847573000   -0.7755563000   -1.9206972000
H        3.4384114000    0.3670990000    1.1967249000
H        1.8647552000    0.7985013000    1.9633894000
18   
Iteration 1 Energy -376.53694484
C        0.1513246585    0.0281011342    0.0264454299
C       -0.5536989991   -0.9030233390    0.8536660556
C       -1.9736198776   -0.9125386002    0.8198827584
C       -2.6806628883   -0.0048379309   -0.0204292406
C       -1.9709090869    0.9167167480   -0.8432353474
C       -0.5507604825    0.9294715318   -0.8349313002
C        1.6769567810    0.0083107516    0.0181280654
N        2.3541549128   -0.4146533254   -1.1051101950
N        2.3771736037    0.3717439489    1.1477052834
H       -0.0018976992   -1.6092069892    1.5039047420
H       -2.5288059816   -1.6337151960    1.4507776527
H       -3.7884864415   -0.0168265035   -0.0355351285
H       -2.5220426937    1.6228431463   -1.4944072758
H        0.0055000661    1.6444163010   -1.4715883881
H        3.4058883496   -0.4029910383   -1.1856764055
H        1.8030903965   -0.6899785036   -1.9587800369
H        3.4294050970    0.3375440759    1.2117430933
H        1.8472188987    0.7155180005    1.9897093722
18   
Iteration 2 Energy -376.53756391
C        0.1528650759    0.0236735447    0.0209004769
C       -0.5560992304   -0.8860172081    0.8688520417
C       -1.9760280489   -0.8966084765    0.8404402257
C       -2.6811538071   -0.0038018679   -0.0172719503
C       -1.9692589117    0.8990360680   -0.8590672710
C       -0.5491651895    0.9102574686   -0.8559961216
C        1.6771989239    0.0071826183    0.0174130493
N        2.3574068020   -0.3734316528   -1.1192506351
N        2.3739149452    0.3347728759    1.1603000958
H       -0.0045116666   -1.5804748713    1.5317255820
H       -2.5310364356   -1.6039137941    1.4870609671
H       -3.7890617626   -0.0126275254   -0.0307961502
H       -2.5203137081    1.5940822539   -1.5220973683
H        0.0066047044    1.6120116858   -1.5076464101
H        3.4090187888   -0.3541092644   -1.1977909818
H        1.8088085205   -0.6271330864   -1.9810433952
H        3.4258305347    0.2976602267    1.2253722017
H        1.8416480132    0.6455269260    2.0134720047
18   
Iteration 3 Energy -376.53861079
C        0.1577405736    0.0399586919    0.0218442212
C       -0.5556686741   -0.8353796108    0.9031645420
C       -1.9749814809   -0.8623839783    0.8801172208
C       -2.6799001830   -0.0072294306   -0.0160169766
C       -1.9674192957    0.8588821591   -0.8963684938
C       -0.5479052542    0.8788752097   -0.8991627852
C        1.6764098063    0.0322518090    0.0188902783
N        2.3504466803   -0.2825962601   -1.1420569682
N        2.3735420505    0.2540630868    1.1876867511
H       -0.0009553515   -1.5054091741    1.5881617151
H       -2.5262174841   -1.5469644547    1.5539837598
H       -3.7878981194   -0.0193714951   -0.0316849383
H       -2.5216268088    1.5225524698   -1.5882604393
H        0.0034553614    1.5515086518   -1.5846263235
H        3.4014587246   -0.2648069510   -1.2204087040
H        1.7993214979   -0.5011738100   -2.0112980759
H        3.4230866673    0.1816057832    1.2511900489
H        1.8439489530    0.4886020188    2.0659589540
18   
Iteration 4 Energy -376.53863536
C        0.1571832062    0.0438138153    0.0238875301
C       -0.5582426188   -0.8313238463    0.9045703006
C       -1.9774413213   -0.8609450275    0.8822320320
C       -2.6831208028   -0.0078370800   -0.0149346239
C       -1.9696895216    0.8570385438   -0.8956687627
C       -0.5502823411    0.8802256933   -0.8986422743
C        1.6757943377    0.0291114268    0.0156105075
N        2.3567125280   -0.2830920876   -1.1422905240
N        2.3739340068    0.2476720667    1.1843470037
H       -0.0035313015   -1.5010322943    1.5898900271
H       -2.5276863353   -1.5460386245    1.5564263472
H       -3.7911173095   -0.0209750141   -0.0313089744
H       -2.5245543906    1.5184760603   -1.5891250200
H       -0.0002645674    1.5538070831   -1.5843029268
H        3.4082767382   -0.2655166767   -1.2135689163
H        1.8107252628   -0.4949116879   -2.0163499372
H        3.4229769355    0.1714019216    1.2518402599
H        1.8438539014    0.4894670734    2.0603212382
18   
Iteration 5 Energy -376.53867321
C        0.1563405717    0.0474394582    0.0292946788
C       -0.5591703913   -0.8297974983    0.9086046317
C       -1.9780955147   -0.8614887231    0.8818729101
C       -2.6812974948   -0.0105629918   -0.0190978182
C       -1.9684935554    0.8554219148   -0.8992249312
C       -0.5493390027    0.8817152199   -0.8972967102
C        1.6744558603    0.0268362253    0.0202240891
N        2.3492007747   -0.2843499580   -1.1418345385
N        2.3777544044    0.2431714606    1.1868362242
H       -0.0051267730   -1.4979545570    1.5960610230
H       -2.5295999071   -1.5469320128    1.5547163908
H       -3.7891900271   -0.0262936311   -0.0389067120
H       -2.5232851392    1.5140367523   -1.5954314549
H        0.0017688657    1.5571465824   -1.5803167203
H        3.4006428883   -0.2679796983   -1.2144228123
H        1.8003884554   -0.4864317657   -2.0164508430
H        3.4268057600    0.1625715241    1.2491048045
H        1.8532810654    0.4953959800    2.0632603679
18   
Iteration 6 Energy -376.53873486
C        0.1564887505    0.0572436613    0.0413397030
C       -0.5596796663   -0.8224629661    0.9183225238
C       -1.9782913979   -0.8570655009    0.8792289976
C       -2.6839500398   -0.0161991805   -0.0292092604
C       -1.9681287356    0.8490990743   -0.9076949544
C       -0.5493891465    0.8811301787   -0.8950374685
C        1.6732658404    0.0273999902    0.0304302819
N        2.3368025012   -0.2824773671   -1.1389914710
N        2.3856945411    0.2279447630    1.1950458154
H       -0.0077727624   -1.4851781105    1.6128571927
H       -2.5308605358   -1.5422178158    1.5514001565
H       -3.7916438758   -0.0388203223   -0.0559941054
H       -2.5209706452    1.5010779571   -1.6116555620
H        0.0029308514    1.5589886093   -1.5747080569
H        3.3871570585   -0.2728737232   -1.2261073209
H        1.7773640989   -0.4670953641   -2.0107045101
H        3.4344683253    0.1378248080    1.2468711392
H        1.8721176640    0.4922881529    2.0742903278
18   
Iteration 7 Energy -376.53877336
C        0.1509985862    0.0670943834    0.0505592328
C       -0.5591747962   -0.8149809080    0.9304706149
C       -1.9772280553   -0.8533550242    0.8838458923
C       -2.6771621359   -0.0190393002   -0.0355716749
C       -1.9706614344    0.8481908162   -0.9202242170
C       -0.5526339134    0.8806123157   -0.8968926888
C        1.6662207838    0.0284003741    0.0335930046
N        2.3288899201   -0.2807876527   -1.1369327417
N        2.3828056106    0.2039153360    1.1995577030
H       -0.0058274643   -1.4698307743    1.6313493522
H       -2.5323542101   -1.5358588037    1.5566494096
H       -3.7845227221   -0.0477938224   -0.0662956386
H       -2.5245254365    1.4927191691   -1.6304234634
H        0.0025037990    1.5579717887   -1.5747650825
H        3.3793591776   -0.2733491576   -1.2234747504
H        1.7690435187   -0.4506919647   -2.0114047687
H        3.4309512515    0.1064249907    1.2476951263
H        1.8752679956    0.4738565121    2.0804977103
18   
Iteration 8 Energy -376.53879526
C        0.1501132222    0.0632835416    0.0475383902
C       -0.5578831552   -0.8176721051    0.9299172301
C       -1.9761215132   -0.8493734168    0.8825352922
C       -2.6832410401   -0.0154893937   -0.0319665575
C       -1.9714995909    0.8476695695   -0.9162417613
C       -0.5531075655    0.8785785000   -0.8984772858
C        1.6657050861    0.0268613703    0.0287591327
N        2.3332030622   -0.2831072118   -1.1386533482
N        2.3783420667    0.2019100135    1.1969590850
H       -0.0052446960   -1.4744763013    1.6295950965
H       -2.5305295953   -1.5312615345    1.5563855153
H       -3.7908680328   -0.0416403234   -0.0593856845
H       -2.5244248550    1.4941630927   -1.6252379839
H        0.0013820049    1.5532231709   -1.5796388861
H        3.3847228013   -0.2691097259   -1.2105569112
H        1.7816535820   -0.4555087924   -2.0179324062
H        3.4266067717    0.1086338493    1.2503779279
H        1.8664055740    0.4694774766    2.0760830141
18   
Iteration 9 Energy -376.53880837
C        0.1529006062    0.0583121678    0.0453453500
C       -0.5588712397   -0.8207683478    0.9262262084
C       -1.9772733929   -0.8501421335    0.8816159718
C       -2.6844739280   -0.0126404732   -0.0295763856
C       -1.9728923955    0.8496876395   -0.9144099504
C       -0.5540992574    0.8754717675   -0.8963022552
C        1.6693358224    0.0264885053    0.0275432592
N        2.3390570981   -0.2831537235   -1.1386273021
N        2.3788701646    0.2084529487    1.1966940574
H       -0.0075965079   -1.4815847563    1.6231048386
H       -2.5318409027   -1.5326245633    1.5547766437
H       -3.7922014148   -0.0362142966   -0.0545864607
H       -2.5247092230    1.4987443791   -1.6219621579
H        0.0002841338    1.5476006613   -1.5798555150
H        3.3899671137   -0.2704668459   -1.2188007123
H        1.7846885831   -0.4591964679   -2.0152477332
H        3.4273939506    0.1193258728    1.2534197640
H        1.8631463810    0.4738854251    2.0742669688
18   
Iteration 10 Energy -376.53880954
C        0.1512574397    0.0596193216    0.0456740596
C       -0.5582178156   -0.8204548832    0.9275760845
C       -1.9764574763   -0.8507147706    0.8826396920
C       -2.6820581805   -0.0132685867   -0.0298839490
C       -1.9711950933    0.8493162932   -0.9151571460
C       -0.5526045403    0.8772268053   -0.8980210622
C        1.6672311759    0.0266925010    0.0276723600
N        2.3372592657   -0.2830418520   -1.1382490597
N        2.3767958833    0.2066034900    1.1970557535
H       -0.0060161906   -1.4806113251    1.6244211105
H       -2.5313856704   -1.5330689292    1.5556373129
H       -3.7897534255   -0.0371297672   -0.0554740807
H       -2.5238464384    1.4974547854   -1.6228839834
H        0.0021624334    1.5494918802   -1.5812272532
H        3.3880400277   -0.2714916560   -1.2205957721
H        1.7819399316   -0.4573908606   -2.0146184368
H        3.4252333332    0.1160081833    1.2530832397
H        1.8615838854    0.4730188409    2.0746223046
18   
Iteration 11 Energy -376.53881150
C        0.1514791988    0.0603332906    0.0463471227
C       -0.5584475658   -0.8194384690    0.9281141113
C       -1.9767075469   -0.8499525837    0.8826883250
C       -2.6825660062   -0.0134097928   -0.0305204290
C       -1.9720722795    0.8490684664   -0.9162144576
C       -0.5535015987    0.8764829557   -0.8977631196
C        1.6673539001    0.0266649268    0.0276848946
N        2.3362720401   -0.2831054116   -1.1388072471
N        2.3779294302    0.2042860087    1.1967954216
H       -0.0063756398   -1.4790944080    1.6255215699
H       -2.5316142609   -1.5320517668    1.5559600001
H       -3.7902428057   -0.0378301464   -0.0562691350
H       -2.5245054380    1.4966840781   -1.6246182398
H        0.0012863558    1.5487083833   -1.5809602679
H        3.3873352408   -0.2698494602   -1.2172384688
H        1.7823442842   -0.4563678521   -2.0163357019
H        3.4263135483    0.1129049407    1.2521134729
H        1.8635797125    0.4709311330    2.0747798833
18   
Iteration 12 Energy -376.53881191
C        0.1517158225    0.0593756066    0.0456840725
C       -0.5585108377   -0.8201917051    0.9274011160
C       -1.9768045108   -0.8500794506    0.8823326915
C       -2.6829253504   -0.0129948624   -0.0301512186
C       -1.9720157830    0.8493188145   -0.9156291446
C       -0.5533829412    0.8762528375   -0.8977082997
C        1.6677524370    0.0262470656    0.0272725069
N        2.3371165469   -0.2836087438   -1.1389888086
N        2.3778346184    0.2052349254    1.1965123150
H       -0.0066240743   -1.4803731441    1.6244487308
H       -2.5317097554   -1.5322278554    1.5555522272
H       -3.7906267965   -0.0369118033   -0.0555307434
H       -2.5243131621    1.4974784188   -1.6236302821
H        0.0013621540    1.5483252679   -1.5810830439
H        3.3880802730   -0.2703450798   -1.2186991724
H        1.7828269014   -0.4573386947   -2.0161684911
H        3.4262728168    0.1147976355    1.2524707487
H        1.8628472224    0.4717408079    2.0741740032
