18   
Iteration 0 Energy -376.54167224
C        0.1669419000    0.0025491000   -0.0156831000
C       -0.5576553000   -1.2362127000   -0.1203595000
C       -1.9745784000   -1.2313134000   -0.1186524000
C       -2.6865963000   -0.0011035000    0.0010728000
C       -1.9753907000    1.2297221000    0.1188233000
C       -0.5584701000    1.2385157000    0.1128322000
C        1.6740630000    0.0027074000    0.0049002000
N        2.3835493000   -1.1632772000    0.2333558000
N        2.3895935000    1.1607705000   -0.2425696000
H       -0.0240672000   -2.1980627000   -0.2462854000
H       -2.5265738000   -2.1865504000   -0.2148910000
H       -3.7952698000   -0.0019365000    0.0051568000
H       -2.5286081000    2.1832393000    0.2243850000
H       -0.0258719000    2.2006176000    0.2417565000
H        3.4351171000   -1.1931173000    0.2290071000
H        1.8789762000   -2.0344714000    0.5303194000
H        3.4407410000    1.1895269000   -0.2142183000
H        1.8894306000    2.0377393000   -0.5295748000
18   
Iteration 1 Energy -376.54192055
C        0.1655833898   -0.0056682286   -0.0045143667
C       -0.5615854932   -1.2387297154   -0.1500402041
C       -1.9784006837   -1.2259404944   -0.1487310945
C       -2.6864847632    0.0032386993    0.0022554883
C       -1.9737425879    1.2300028348    0.1485159188
C       -0.5568278936    1.2300934867    0.1434777005
C        1.6730468825   -0.0059960620   -0.0069472249
N        2.3917672711   -1.1526029108    0.2818075197
N        2.3822808925    1.1472416067   -0.2913050999
H       -0.0320792506   -2.1985450138   -0.3057026422
H       -2.5344126356   -2.1757562857   -0.2716544300
H       -3.7951384812    0.0052029515    0.0049314864
H       -2.5234854886    2.1832314047    0.2735078915
H       -0.0204748321    2.1875338159    0.2899746862
H        3.4437457522   -1.1605089976    0.2777259911
H        1.9002143678   -2.0134811947    0.6270157834
H        3.4333893109    1.1774519189   -0.2633271113
H        1.8797097300    2.0127656169   -0.6075515078
18   
Iteration 2 Energy -376.54204611
C        0.1663515350    0.0022160204    0.0030657005
C       -0.5533349442   -1.2309310709   -0.1707785200
C       -1.9703779322   -1.2275940276   -0.1721659885
C       -2.6816666916   -0.0035166461    0.0025273913
C       -1.9703869928    1.2213101180    0.1733040638
C       -0.5533791669    1.2363953516    0.1700309724
C        1.6724919056    0.0027858283   -0.0086615321
N        2.3732344524   -1.1439439954    0.3207870051
N        2.3873559385    1.1422481694   -0.3321019141
H       -0.0148717290   -2.1828580655   -0.3442954260
H       -2.5220055281   -2.1770335043   -0.3160459623
H       -3.7903369323   -0.0039863793    0.0038390113
H       -2.5256363261    2.1687638117    0.3158906551
H       -0.0195114328    2.1921766438    0.3361650723
H        3.4246506179   -1.1824918796    0.3177741322
H        1.8613455140   -1.9825117322    0.6913748912
H        3.4386693451    1.1738973141   -0.3083820971
H        1.8858316071    1.9949477418   -0.6835306001
18   
Iteration 3 Energy -376.54209495
C        0.1669722084   -0.0032401139    0.0131324320
C       -0.5520090008   -1.2285434200   -0.2044430901
C       -1.9694857038   -1.2179079725   -0.2101370897
C       -2.6797875466    0.0013979256    0.0003747038
C       -1.9708543376    1.2214555734    0.2108038607
C       -0.5533902830    1.2253103746    0.2086679529
C        1.6727772810   -0.0024635760   -0.0057057563
N        2.3819362858   -1.1248333159    0.3835083914
N        2.3768987359    1.1236582264   -0.3902573224
H       -0.0113530293   -2.1736599745   -0.4063885342
H       -2.5237995514   -2.1600574290   -0.3876509731
H       -3.7883961285    0.0015155282   -0.0027126298
H       -2.5238816380    2.1659059109    0.3802394077
H       -0.0125620600    2.1713950969    0.4048220443
H        3.4332061125   -1.1720499340    0.3736527352
H        1.8693408233   -1.9427336526    0.7975690190
H        3.4281205480    1.1681183601   -0.3729692047
H        1.8646723274    1.9468388865   -0.7941059577
18   
Iteration 4 Energy -376.54213489
C        0.1656166414   -0.0006635106    0.0103096594
C       -0.5536267011   -1.2254618766   -0.2096987057
C       -1.9712229202   -1.2176715241   -0.2180889142
C       -2.6803521008    0.0011040178   -0.0022660694
C       -1.9683775180    1.2179814167    0.2166225042
C       -0.5508383114    1.2278199706    0.2159628474
C        1.6718581224   -0.0024578192    0.0015743857
N        2.3793905223   -1.1228743760    0.3969113779
N        2.3743450584    1.1187157989   -0.3988012287
H       -0.0097547755   -2.1687237073   -0.4115423114
H       -2.5251292518   -2.1591289119   -0.4006546597
H       -3.7889549858    0.0028491090   -0.0058111774
H       -2.5223291775    2.1606427657    0.3925154357
H       -0.0074894345    2.1709374085    0.4202388267
H        3.4311011966   -1.1547886035    0.3728386323
H        1.8736726383   -1.9423677114    0.8170181107
H        3.4259223091    1.1585443767   -0.3824447401
H        1.8621033938    1.9353987467   -0.8164894062
18   
Iteration 5 Energy -376.54215287
C        0.1659034635   -0.0011319019    0.0058851064
C       -0.5512323544   -1.2275171266   -0.2124301751
C       -1.9686909008   -1.2172987614   -0.2195951623
C       -2.6779409023    0.0011186574   -0.0018969693
C       -1.9688964508    1.2191781529    0.2187807779
C       -0.5514548478    1.2262297096    0.2167103953
C        1.6725772380   -0.0007441245    0.0000049697
N        2.3761765276   -1.1215298935    0.4003507566
N        2.3752703821    1.1202868306   -0.4014895680
H       -0.0068784520   -2.1706106977   -0.4138434953
H       -2.5233599865   -2.1583418217   -0.4019223484
H       -3.7865177094    0.0015558864   -0.0043323804
H       -2.5230404833    2.1613223817    0.3970627913
H       -0.0067034752    2.1684314753    0.4213331478
H        3.4274745633   -1.1658764630    0.3777136848
H        1.8632443561   -1.9367613587    0.8198582060
H        3.4266580729    1.1660912022   -0.3850389176
H        1.8601837291    1.9351655598   -0.8190304400
18   
Iteration 6 Energy -376.54215037
C        0.1668039613   -0.0007670634    0.0033531954
C       -0.5537419271   -1.2254217238   -0.2132150783
C       -1.9712214196   -1.2173885018   -0.2193308662
C       -2.6809400168    0.0006209645   -0.0011834399
C       -1.9690731062    1.2172283763    0.2182764637
C       -0.5515730834    1.2258295058    0.2154040241
C        1.6739241799   -0.0013857509   -0.0012962007
N        2.3797989654   -1.1200674623    0.4007868929
N        2.3761164032    1.1204655840   -0.4011356853
H       -0.0103379576   -2.1688588862   -0.4153047959
H       -2.5252671237   -2.1590208745   -0.4005803036
H       -3.7895378445    0.0017281562   -0.0022993297
H       -2.5226821660    2.1595211691    0.3972827600
H       -0.0076439597    2.1687988795    0.4184682322
H        3.4308629425   -1.1699655967    0.3789331511
H        1.8651402203   -1.9349405758    0.8185788256
H        3.4274268743    1.1665823497   -0.3824180263
H        1.8608649310    1.9363670825   -0.8162807497
18   
Iteration 7 Energy -376.54215712
C        0.1658834199   -0.0009867977    0.0035836052
C       -0.5526116495   -1.2266851538   -0.2132721621
C       -1.9700595108   -1.2175472715   -0.2190467142
C       -2.6793346012    0.0008116508   -0.0009034823
C       -1.9691443011    1.2184601031    0.2183468616
C       -0.5516842527    1.2262030104    0.2151398766
C        1.6727536992   -0.0012236942   -0.0011187678
N        2.3774857798   -1.1205691640    0.4010942726
N        2.3753694301    1.1203046766   -0.4009600096
H       -0.0088958515   -2.1699188312   -0.4157331590
H       -2.5245445108   -2.1589345985   -0.4001842944
H       -3.7879205985    0.0014587186   -0.0021090034
H       -2.5230285421    2.1606340954    0.3972224267
H       -0.0074401198    2.1690658400    0.4178619978
H        3.4286861262   -1.1666086812    0.3779497361
H        1.8641327274   -1.9369696006    0.8176417383
H        3.4266963578    1.1650701446   -0.3811578663
H        1.8611075669    1.9367229923   -0.8163610733
18   
Iteration 8 Energy -376.54215764
C        0.1658519808   -0.0010399841    0.0033279119
C       -0.5527880253   -1.2266680431   -0.2133556590
C       -1.9702721358   -1.2173108461   -0.2189554923
C       -2.6798499242    0.0008392887   -0.0007164923
C       -1.9693936393    1.2183672807    0.2183087847
C       -0.5519161108    1.2259927975    0.2149140052
C        1.6727335989   -0.0012753395   -0.0009255506
N        2.3769643939   -1.1206755466    0.4018917468
N        2.3758263768    1.1199138999   -0.4009332685
H       -0.0092476872   -2.1699528916   -0.4160647129
H       -2.5247435308   -2.1587131645   -0.4000236131
H       -3.7884399262    0.0014481598   -0.0018012340
H       -2.5231310236    2.1606095923    0.3972714936
H       -0.0077538451    2.1689450205    0.4174399059
H        3.4281508072   -1.1662021645    0.3773926325
H        1.8636849914   -1.9381488465    0.8164295355
H        3.4270521793    1.1667546716   -0.3805446780
H        1.8609825789    1.9362545394   -0.8157366411
