18   
Iteration 0 Energy -376.54086242
C        0.1546859000   -0.0039090000   -0.0072895000
C       -0.5841631000   -0.5339481000   -1.1236981000
C       -2.0007353000   -0.5273639000   -1.1101948000
C       -2.7053679000    0.0046616000    0.0097199000
C       -1.9843916000    0.5324263000    1.1212082000
C       -0.5677446000    0.5305808000    1.1177248000
C        1.6642591000   -0.0080686000   -0.0163675000
N        2.3924048000    0.4966630000    1.0467312000
N        2.3766485000   -0.5181202000   -1.0875111000
H       -0.0681446000   -0.9544852000   -2.0082421000
H       -2.5580508000   -0.9378556000   -1.9746248000
H       -3.8140358000    0.0079558000    0.0162814000
H       -2.5289279000    0.9461758000    1.9922063000
H       -0.0387439000    0.9477953000    1.9961460000
H        3.4439441000    0.4992175000    1.0526321000
H        1.9045749000    0.8935298000    1.8860461000
H        3.4280178000   -0.5217108000   -1.1066453000
H        1.8771782000   -0.9085484000   -1.9230005000
18   
Iteration 1 Energy -376.54079329
C        0.1548781358    0.0250439164   -0.0209187875
C       -0.5837040867   -0.5484068677   -1.1159286985
C       -2.0001755076   -0.5560041749   -1.0961080897
C       -2.7048013482   -0.0021438362    0.0131335610
C       -1.9842615619    0.5580925710    1.1088814502
C       -0.5677214156    0.5705566530    1.0987429112
C        1.6644964316    0.0140040234   -0.0262945246
N        2.3910252352    0.4478408343    1.0686273050
N        2.3775152396   -0.4736306625   -1.1074345170
H       -0.0673978338   -0.9905780231   -1.9896775246
H       -2.5571477021   -0.9960390448   -1.9461100663
H       -3.8133942403   -0.0102441378    0.0252092997
H       -2.5290391419    0.9844827998    1.9736090136
H       -0.0390360024    1.0089187341    1.9670010010
H        3.4423067391    0.4283766098    1.0815330108
H        1.9035653082    0.8095758698    1.9238802531
H        3.4287332054   -0.4978840646   -1.1174604652
H        1.8785812759   -0.8269617390   -1.9595614128
18   
Iteration 2 Energy -376.54087592
C        0.1547693787    0.0309847341   -0.0241568543
C       -0.5827589885   -0.5674752785   -1.1064166214
C       -1.9991665506   -0.5791196745   -1.0837288090
C       -2.7041019072   -0.0044925894    0.0147035597
C       -1.9839398126    0.5802633714    1.0978249619
C       -0.5674609670    0.5962164066    1.0859090702
C        1.6643366155    0.0152875965   -0.0264617968
N        2.3897593117    0.4048209897    1.0857187587
N        2.3780253098   -0.4355614070   -1.1230179896
H       -0.0659410656   -1.0286021944   -1.9700174516
H       -2.5560250574   -1.0399452829   -1.9227079434
H       -3.8126504463   -0.0156150123    0.0283521841
H       -2.5289638518    1.0234947621    1.9538814853
H       -0.0386772016    1.0579437879    1.9419359977
H        3.4410327791    0.3851167912    1.0991452882
H        1.9012616060    0.7358005638    1.9527578859
H        3.4290424964   -0.4683473191   -1.1301552643
H        1.8797982104   -0.7463833341   -1.9919782755
18   
Iteration 3 Energy -376.54115333
C        0.1549566774    0.0341236791   -0.0274214161
C       -0.5818384653   -0.6004968773   -1.0890415848
C       -1.9982805024   -0.6148652449   -1.0632842134
C       -2.7024669985   -0.0059826854    0.0171017649
C       -1.9822040081    0.6159186328    1.0793778653
C       -0.5656791069    0.6333628313    1.0653372875
C        1.6640472716    0.0144368831   -0.0274670654
N        2.3847771680    0.3363509682    1.1092338786
N        2.3789398657   -0.3738989983   -1.1468851676
H       -0.0638459870   -1.0942700592   -1.9337018024
H       -2.5555807159   -1.1065348497   -1.8842753395
H       -3.8109585349   -0.0191066450    0.0329472012
H       -2.5271215478    1.0880146275    1.9199345885
H       -0.0352127622    1.1323882079    1.8991676419
H        3.4361656753    0.3261442811    1.1284516193
H        1.8895777978    0.6086810389    1.9928586539
H        3.4296520623   -0.4167776256   -1.1508073477
H        1.8825215220   -0.6132917024   -2.0393538951
18   
Iteration 4 Energy -376.54146318
C        0.1537105146    0.0074400809   -0.0130114387
C       -0.5794182213   -0.6260242390   -1.0771993453
C       -1.9961814563   -0.6280591527   -1.0574667192
C       -2.7000504047   -0.0008554324    0.0127338310
C       -1.9806873790    0.6310573657    1.0699142924
C       -0.5639066120    0.6358482749    1.0647052765
C        1.6620301006   -0.0072172418   -0.0169343574
N        2.3842718761    0.3120986526    1.1192207884
N        2.3724943386   -0.3470213566   -1.1545937377
H       -0.0576996514   -1.1364699256   -1.9096646502
H       -2.5541098458   -1.1246791874   -1.8750426804
H       -3.8086765081   -0.0039573617    0.0226359101
H       -2.5267167189    1.1238707360    1.8977615178
H       -0.0304292917    1.1544756342    1.8846947861
H        3.4357832479    0.3332797435    1.1234627628
H        1.8909856045    0.5479263929    2.0146680122
H        3.4235139276   -0.3814924090   -1.1702342963
H        1.8698582526   -0.5448687193   -2.0540659904
18   
Iteration 5 Energy -376.54155728
C        0.1590743081   -0.0341583664    0.0071723129
C       -0.5832506562   -0.6630311006   -1.0527355091
C       -2.0004060428   -0.6450109041   -1.0483663119
C       -2.7028161454    0.0106041295    0.0055943981
C       -1.9804053270    0.6523715502    1.0546811521
C       -0.5633438818    0.6321946194    1.0577078867
C        1.6672307461   -0.0312941459   -0.0091213645
N        2.3903018517    0.2858838361    1.1267182051
N        2.3697318480   -0.3063584050   -1.1686715116
H       -0.0608934117   -1.2054755286   -1.8641390522
H       -2.5589561751   -1.1466316614   -1.8625585162
H       -3.8113757983    0.0254345816    0.0069801738
H       -2.5237749575    1.1760124800    1.8652634685
H       -0.0250063703    1.1729558999    1.8598277808
H        3.4394683744    0.3611217043    1.1311505409
H        1.8932838513    0.4414179421    2.0377876825
H        3.4211585792   -0.3255840314   -1.1925799766
H        1.8603390389   -0.4536238543   -2.0743035161
18   
Iteration 6 Energy -376.54160791
C        0.1526522444   -0.0397479740    0.0116321870
C       -0.5758961056   -0.6734400782   -1.0552186796
C       -1.9924636360   -0.6473082864   -1.0484709222
C       -2.6948204470    0.0140046146    0.0022874683
C       -1.9751832225    0.6559617626    1.0532758533
C       -0.5585393310    0.6347588769    1.0650989354
C        1.6594058866   -0.0286149794   -0.0074769295
N        2.3824208597    0.2894279637    1.1280109129
N        2.3590014844   -0.2992319822   -1.1698153942
H       -0.0492819308   -1.2227231705   -1.8597151057
H       -2.5527624546   -1.1480333686   -1.8619068630
H       -3.8033492803    0.0322271218    0.0002394503
H       -2.5214227180    1.1823161040    1.8600831472
H       -0.0171668578    1.1736514068    1.8667242527
H        3.4314301497    0.3669337343    1.1224526194
H        1.8912527514    0.4191104749    2.0464972700
H        3.4103297729   -0.3179233574   -1.1998568408
H        1.8449881606   -0.4443341603   -2.0733189955
18   
Iteration 7 Energy -376.54164387
C        0.1538936479   -0.0281472762    0.0078979309
C       -0.5780767740   -0.6622661054   -1.0563937568
C       -1.9948335802   -0.6446276406   -1.0514438253
C       -2.6983098790    0.0108383622    0.0022564625
C       -1.9809401849    0.6508942123    1.0559606238
C       -0.5640759527    0.6356514930    1.0636878363
C        1.6615723772   -0.0206630406   -0.0066240212
N        2.3895432218    0.2984160268    1.1256966262
N        2.3623452705   -0.3080205216   -1.1643191439
H       -0.0512641065   -1.2041287433   -1.8656268149
H       -2.5528630703   -1.1454807270   -1.8664252639
H       -3.8068827695    0.0244575936    0.0012459038
H       -2.5282135397    1.1692770704    1.8672648783
H       -0.0264193904    1.1686039456    1.8715643885
H        3.4398776761    0.3535784537    1.1125061885
H        1.9050240972    0.4433443129    2.0453430400
H        3.4135062196   -0.3313396140   -1.1955487919
H        1.8483352435   -0.4638729480   -2.0659494847
18   
Iteration 8 Energy -376.54165218
C        0.1562315341   -0.0267646283    0.0023603466
C       -0.5803555735   -0.6615984351   -1.0582694129
C       -1.9971510984   -0.6435884219   -1.0480691214
C       -2.7005025394    0.0117343406    0.0058197904
C       -1.9779505009    0.6508743709    1.0564357688
C       -0.5609588393    0.6355557085    1.0594296582
C        1.6638750197   -0.0212834925   -0.0126147241
N        2.3836091452    0.3012491890    1.1242832290
N        2.3691611088   -0.3101628123   -1.1674173172
H       -0.0572541590   -1.2038041179   -1.8696121540
H       -2.5569676456   -1.1453160254   -1.8612522606
H       -3.8091139594    0.0252685996    0.0076555992
H       -2.5220240703    1.1688004318    1.8701559523
H       -0.0213199251    1.1664920230    1.8672667645
H        3.4342332840    0.3517227289    1.1296492618
H        1.8886276911    0.4437950041    2.0386761104
H        3.4205464015   -0.3315912475   -1.1907649922
H        1.8608011483   -0.4655056429   -2.0722977608
18   
Iteration 9 Energy -376.54166411
C        0.1547205742   -0.0296646253    0.0062775954
C       -0.5791369563   -0.6657428530   -1.0555183610
C       -1.9958359053   -0.6471293286   -1.0489986155
C       -2.6975902472    0.0119292591    0.0035981696
C       -1.9781913438    0.6537997945    1.0547658710
C       -0.5613344121    0.6373604646    1.0612204006
C        1.6620807350   -0.0220797470   -0.0097906856
N        2.3864640664    0.3001708561    1.1241793546
N        2.3637584397   -0.3049628626   -1.1680419288
H       -0.0536551596   -1.2109187506   -1.8633626310
H       -2.5552604321   -1.1499653717   -1.8618007429
H       -3.8061514934    0.0267488808    0.0036792736
H       -2.5241135610    1.1748644352    1.8652541753
H       -0.0218171826    1.1713049752    1.8671655468
H        3.4371787110    0.3499474142    1.1268888502
H        1.8954615534    0.4283098114    2.0428601895
H        3.4151410859   -0.3247598329   -1.1941797284
H        1.8527249459   -0.4536003566   -2.0726225029
18   
Iteration 10 Energy -376.54166788
C        0.1544764576   -0.0320064404    0.0091371254
C       -0.5770945743   -0.6698462310   -1.0530434762
C       -1.9937891142   -0.6491206600   -1.0468859560
C       -2.6984354020    0.0123878710    0.0022589866
C       -1.9795695027    0.6564939126    1.0523644470
C       -0.5627363662    0.6387516945    1.0610070099
C        1.6616438982   -0.0219272723   -0.0073260131
N        2.3872693086    0.3014427199    1.1254282564
N        2.3619137338   -0.2997404120   -1.1676134036
H       -0.0504042140   -1.2182553445   -1.8579692108
H       -2.5523992943   -1.1534820017   -1.8592604972
H       -3.8070083241    0.0277360040    0.0002859151
H       -2.5261315934    1.1808587453    1.8602818348
H       -0.0236798292    1.1757865891    1.8651993613
H        3.4383466933    0.3437045353    1.1185682805
H        1.9029954291    0.4118360960    2.0501239363
H        3.4132141999   -0.3179353879   -1.1990051754
H        1.8480532050   -0.4416905740   -2.0717109650
18   
Iteration 11 Energy -376.54167468
C        0.1548097452   -0.0289139635    0.0067369370
C       -0.5782589089   -0.6676728101   -1.0539805830
C       -1.9949807681   -0.6493415237   -1.0475686936
C       -2.6973850943    0.0116840203    0.0033903747
C       -1.9782279245    0.6560149730    1.0532620246
C       -0.5613593637    0.6399535978    1.0604128409
C        1.6619970929   -0.0207018490   -0.0094338583
N        2.3852050510    0.3044355237    1.1246464291
N        2.3638861356   -0.3021693843   -1.1679744040
H       -0.0520378725   -1.2145116277   -1.8602272890
H       -2.5541152201   -1.1541242920   -1.8593555058
H       -3.8059561904    0.0261289214    0.0031877227
H       -2.5245269127    1.1788337550    1.8623634844
H       -0.0217224927    1.1759002713    1.8649516537
H        3.4366142140    0.3392459730    1.1243219498
H        1.8978044820    0.4145324056    2.0477922709
H        3.4152412021   -0.3200566775   -1.1976786306
H        1.8516751150   -0.4447434036   -2.0729017127
18   
Iteration 12 Energy -376.54167438
C        0.1550173324   -0.0259282019    0.0043579217
C       -0.5782062352   -0.6659320952   -1.0554821211
C       -1.9949680500   -0.6488292560   -1.0465295496
C       -2.6986099099    0.0107514845    0.0045436564
C       -1.9788553577    0.6555595525    1.0536920772
C       -0.5619386832    0.6409809261    1.0587590271
C        1.6623062065   -0.0192792704   -0.0101741603
N        2.3872959940    0.3071422393    1.1227915367
N        2.3642117012   -0.3043152948   -1.1677345194
H       -0.0525923728   -1.2111409200   -1.8632338359
H       -2.5541305290   -1.1543344421   -1.8578217545
H       -3.8072164923    0.0235239864    0.0051561006
H       -2.5246794174    1.1771497322    1.8639057221
H       -0.0223399822    1.1767592663    1.8634021721
H        3.4390045997    0.3333388652    1.1292007039
H        1.8984657068    0.4152881696    2.0454199815
H        3.4156776441   -0.3207032264   -1.1946082367
H        1.8536265826   -0.4462809204   -2.0737178975
