18   
Iteration 0 Energy -376.54167604
C        0.1529192000   -0.0267916000    0.0057192000
C       -0.5793988000   -0.6670462000   -1.0546347000
C       -1.9961400000   -0.6501991000   -1.0473146000
C       -2.6996790000    0.0098720000    0.0034696000
C       -1.9808709000    0.6554343000    1.0528143000
C       -0.5639992000    0.6411299000    1.0595319000
C        1.6601721000   -0.0190020000   -0.0092549000
N        2.3844196000    0.3074659000    1.1239445000
N        2.3621943000   -0.3031386000   -1.1669810000
H       -0.0529168000   -1.2129055000   -1.8613795000
H       -2.5547893000   -1.1559006000   -1.8588497000
H       -3.8082773000    0.0226929000    0.0035444000
H       -2.5275293000    1.1776911000    1.8620321000
H       -0.0249757000    1.1781858000    1.8637322000
H        3.4359570000    0.3389401000    1.1268733000
H        1.8962242000    0.4182593000    2.0465689000
H        3.4136254000   -0.3205623000   -1.1941125000
H        1.8513276000   -0.4471963000   -2.0724476000
18   
Iteration 1 Energy -376.54193882
C        0.1537451753    0.0008046676   -0.0087430554
C       -0.5785319495   -0.6805692958   -1.0430999866
C       -1.9953538586   -0.6768669980   -1.0280429007
C       -2.7000499602    0.0038123255    0.0087445860
C       -1.9817527770    0.6802006449    1.0388207342
C       -0.5647420263    0.6791161619    1.0372694589
C        1.6610536782    0.0026259480   -0.0187051954
N        2.3794590055    0.2552570257    1.1368206993
N        2.3678467028   -0.2561184112   -1.1796298216
H       -0.0514124339   -1.2462822082   -1.8355923693
H       -2.5533925341   -1.2105475519   -1.8218882064
H       -3.8087079856    0.0056751524    0.0148418932
H       -2.5288389310    1.2143895855    1.8399284575
H       -0.0265047842    1.2359755503    1.8284061480
H        3.4313609120    0.2646899461    1.1482927965
H        1.8853216938    0.3260642501    2.0602733261
H        3.4189038267   -0.2929543588   -1.2014934114
H        1.8612844478   -0.3586190397   -2.0931108835
18   
Iteration 2 Energy -376.54207811
C        0.1514002430    0.0067724516   -0.0135375820
C       -0.5743471440   -0.6998491108   -1.0346248826
C       -1.9912398446   -0.7006211028   -1.0134599667
C       -2.6927748461    0.0008019553    0.0117295145
C       -1.9752342308    0.7020467157    1.0259208092
C       -0.5581619217    0.7062065571    1.0236625991
C        1.6572185850    0.0011693556   -0.0207172987
N        2.3698776744    0.2079843676    1.1472631579
N        2.3625926231   -0.2174619557   -1.1902825388
H       -0.0426570327   -1.2781894990   -1.8150551919
H       -2.5510916621   -1.2538816278   -1.7924805709
H       -3.8013801470   -0.0004273337    0.0211708625
H       -2.5233507568    1.2513120208    1.8160189798
H       -0.0146227672    1.2818093072    1.7979323536
H        3.4216538341    0.2194195099    1.1737872896
H        1.8649611196    0.2515392534    2.0668920375
H        3.4135378815   -0.2605659615   -1.2140070734
H        1.8548424568   -0.2712696587   -2.1077859840
18   
Iteration 3 Energy -376.54212351
C        0.1548548360    0.0147545114   -0.0179779582
C       -0.5731745137   -0.7245403376   -1.0123541251
C       -1.9906577665   -0.7325156370   -0.9888106338
C       -2.6953440373   -0.0026850562    0.0142275887
C       -1.9782732524    0.7336681325    1.0037149984
C       -0.5606939249    0.7397358838    0.9959603211
C        1.6608310447    0.0022798032   -0.0197282408
N        2.3705221778    0.1377535447    1.1597542720
N        2.3631454486   -0.1578273794   -1.1999367564
H       -0.0368973222   -1.3228734365   -1.7742552723
H       -2.5488402107   -1.3143698162   -1.7479887619
H       -3.8038911993   -0.0088300093    0.0256682849
H       -2.5263201261    1.3065669691    1.7769790406
H       -0.0145252860    1.3429725391    1.7469479416
H        3.4224785396    0.1495985961    1.1874989419
H        1.8613902900    0.1361236411    2.0784983352
H        3.4138114599   -0.2098771292   -1.2283305454
H        1.8528499994   -0.1433215071   -2.1180362134
18   
Iteration 4 Energy -376.54214664
C        0.1530757953    0.0073878380   -0.0131323175
C       -0.5719547020   -0.7324282619   -1.0096005675
C       -1.9893340152   -0.7356170652   -0.9880457216
C       -2.6919805695   -0.0009721248    0.0126636556
C       -1.9744812286    0.7369515884    1.0005820784
C       -0.5570519217    0.7402300392    0.9990497316
C        1.6595306956   -0.0019759344   -0.0190406560
N        2.3656081844    0.1322937689    1.1620502521
N        2.3601276469   -0.1518492516   -1.2017048416
H       -0.0334724842   -1.3315790625   -1.7694138896
H       -2.5486811699   -1.3166026840   -1.7470251121
H       -3.8005341495   -0.0035398871    0.0227288609
H       -2.5233884782    1.3144129829    1.7697880710
H       -0.0081923705    1.3430257941    1.7485835996
H        3.4175285705    0.1551124343    1.1872837349
H        1.8552852509    0.1250667570    2.0803233394
H        3.4109449339   -0.1995993029   -1.2363151522
H        1.8452427207   -0.1343334528   -2.1172027346
18   
Iteration 5 Energy -376.54215008
C        0.1518721355    0.0022657666   -0.0103818446
C       -0.5715033311   -0.7371211434   -1.0083663365
C       -1.9888256332   -0.7368181963   -0.9881186573
C       -2.6906513632    0.0008436486    0.0109511545
C       -1.9753684795    0.7394819829    0.9998156202
C       -0.5580149693    0.7387902190    0.9993206465
C        1.6588528002   -0.0037472236   -0.0171353543
N        2.3700509088    0.1290936545    1.1609250282
N        2.3556492881   -0.1484987005   -1.2023698702
H       -0.0320320387   -1.3372071242   -1.7667904295
H       -2.5488400396   -1.3169401959   -1.7472710395
H       -3.7991885580    0.0003279007    0.0189145508
H       -2.5246190506    1.3193268179    1.7670212305
H       -0.0078400412    1.3398168931    1.7492829915
H        3.4216449178    0.1614182723    1.1914567215
H        1.8586912925    0.1196431665    2.0785538880
H        3.4066246288   -0.1928935865   -1.2382210682
H        1.8377872350   -0.1323046316   -2.1162539596
18   
Iteration 6 Energy -376.54215591
C        0.1530086263    0.0025921026   -0.0107788906
C       -0.5726755067   -0.7358715432   -1.0076020060
C       -1.9900899413   -0.7362516385   -0.9877550849
C       -2.6929900385    0.0010517837    0.0108650597
C       -1.9750970161    0.7381815522    0.9990254560
C       -0.5576021214    0.7382809972    0.9987614920
C        1.6598505385   -0.0035154345   -0.0178804677
N        2.3692476034    0.1293333920    1.1613511572
N        2.3574457913   -0.1487416057   -1.2026429857
H       -0.0341521263   -1.3366236493   -1.7661210291
H       -2.5496209944   -1.3167432232   -1.7469803319
H       -3.8015537992    0.0009194930    0.0192981357
H       -2.5236258654    1.3176420759    1.7670040160
H       -0.0080478552    1.3387627371    1.7496046356
H        3.4208302899    0.1618318557    1.1901613747
H        1.8581136402    0.1221747542    2.0791125992
H        3.4083975929   -0.1935935706   -1.2370969145
H        1.8405422316   -0.1340098547   -2.1170951314
18   
Iteration 7 Energy -376.54215513
C        0.1527361357    0.0023530545   -0.0110388317
C       -0.5726083631   -0.7357952029   -1.0082454746
C       -1.9899888065   -0.7360619316   -0.9882894609
C       -2.6920355589    0.0015113889    0.0108597784
C       -1.9760365619    0.7386152952    1.0003922427
C       -0.5585392103    0.7375810157    0.9984535586
C        1.6594898913   -0.0033551993   -0.0176386933
N        2.3679427423    0.1292444764    1.1621362958
N        2.3579997161   -0.1486865629   -1.2018966616
H       -0.0343437644   -1.3369999530   -1.7665891353
H       -2.5498543074   -1.3163999252   -1.7474018384
H       -3.8005832803    0.0013413361    0.0188346672
H       -2.5245900688    1.3177397060    1.7686468386
H       -0.0089915120    1.3375053888    1.7496997316
H        3.4195743904    0.1625834326    1.1864635539
H        1.8584882116    0.1246334353    2.0808347296
H        3.4088236803   -0.1945759826   -1.2380930044
H        1.8405854726   -0.1359829313   -2.1160573687
