18   
Iteration 0 Energy -376.54215799
C        0.1665002000   -0.0009122000    0.0030591000
C       -0.5519873000   -1.2270553000   -0.2114607000
C       -1.9694713000   -1.2181988000   -0.2169143000
C       -2.6790823000    0.0002684000   -0.0005999000
C       -1.9689621000    1.2183600000    0.2163380000
C       -0.5514800000    1.2263216000    0.2128541000
C        1.6734669000   -0.0009297000   -0.0008434000
N        2.3780849000   -1.1192193000    0.4041780000
N        2.3765175000    1.1191429000   -0.4036211000
H       -0.0085387000   -2.1706825000   -0.4128841000
H       -2.5237451000   -2.1600417000   -0.3963472000
H       -3.7876767000    0.0006721000   -0.0015399000
H       -2.5228937000    2.1607826000    0.3937843000
H       -0.0077956000    2.1698636000    0.4140130000
H        3.4289057000   -1.1675176000    0.3720381000
H        1.8643823000   -1.9410223000    0.8093844000
H        3.4273636000    1.1686456000   -0.3741746000
H        1.8613709000    1.9402210000   -0.8084470000
18   
Iteration 1 Energy -376.54190078
C        0.1665974721   -0.0088806241    0.0143825600
C       -0.5554815779   -1.2250793324   -0.2408547860
C       -1.9729144430   -1.2119828315   -0.2475990280
C       -2.6790680094    0.0024957066    0.0000358285
C       -1.9654992316    1.2130178851    0.2459701343
C       -0.5480060975    1.2167609996    0.2441431868
C        1.6733253407   -0.0087559867   -0.0116660542
N        2.3844505637   -1.1001122564    0.4513595257
N        2.3697376051    1.1016833689   -0.4509986822
H       -0.0145922568   -2.1636514154   -0.4707337757
H       -2.5297346411   -2.1467535090   -0.4540584333
H       -3.7876452314    0.0063864363   -0.0024283199
H       -2.5167730291    2.1530901175    0.4430307611
H       -0.0017330409    2.1547343798    0.4634734644
H        3.4354923774   -1.1462160788    0.4234995547
H        1.8742197548   -1.9017991485    0.8989717816
H        3.4202751147    1.1585033851   -0.4238183471
H        1.8497194397    1.9051521641   -0.8839379897
18   
Iteration 2 Energy -376.54164884
C        0.1646192789   -0.0071331498    0.0235351335
C       -0.5482809192   -1.2209580965   -0.2623865218
C       -1.9659674892   -1.2074780731   -0.2732031129
C       -2.6732585650    0.0011022927   -0.0014104451
C       -1.9627669576    1.2076030423    0.2724567167
C       -0.5451304039    1.2165957870    0.2732628959
C        1.6709302008   -0.0050235848   -0.0098840797
N        2.3726293434   -1.0851929323    0.4915316550
N        2.3660244450    1.0886532835   -0.4906263040
H       -0.0004675943   -2.1524563818   -0.5053187906
H       -2.5218524470   -2.1376440192   -0.5016490750
H       -3.7817816140    0.0038359590   -0.0070142243
H       -2.5170089617    2.1420415519    0.4871032073
H        0.0030102007    2.1490587761    0.5111511705
H        3.4232732394   -1.1442297281    0.4630133000
H        1.8528601330   -1.8711699219    0.9568441193
H        3.4169460754    1.1469626170   -0.4721000225
H        1.8431659051    1.8720742339   -0.9566095812
18   
Iteration 3 Energy -376.54109022
C        0.1664095470   -0.0149780409    0.0360502386
C       -0.5550441802   -1.2120785819   -0.2919612264
C       -1.9732226824   -1.1954216404   -0.3097614092
C       -2.6778536597    0.0067257536   -0.0055953926
C       -1.9639955771    1.2020741456    0.3054010212
C       -0.5458036840    1.2012139458    0.3094297092
C        1.6742876407   -0.0145595419   -0.0065242253
N        2.3907336715   -1.0585170865    0.5469686781
N        2.3567596649    1.0615062330   -0.5396330615
H       -0.0081189136   -2.1380757373   -0.5564914118
H       -2.5306599760   -2.1164481747   -0.5695215236
H       -3.7862517107    0.0138398360   -0.0164613592
H       -2.5144406551    2.1333327899    0.5427720938
H        0.0070006601    2.1245223060    0.5705820517
H        3.4416867570   -1.1141041303    0.5112282371
H        1.8782474622   -1.8286555418    1.0462357183
H        3.4075656702    1.1290636424   -0.5328086656
H        1.8227570661    1.8152087877   -1.0414776340
18   
Iteration 4 Energy -376.54112481
C        0.1633015391   -0.0138079117    0.0325890231
C       -0.5536477309   -1.2138712784   -0.2953868376
C       -1.9716597659   -1.1951644990   -0.3134009807
C       -2.6758823177    0.0064563809   -0.0068103169
C       -1.9608830644    1.2000764618    0.3080287033
C       -0.5428585236    1.2040975315    0.3131867189
C        1.6723221650   -0.0134849757   -0.0043056926
N        2.3867353519   -1.0553025679    0.5545749642
N        2.3541460174    1.0595825989   -0.5442212806
H       -0.0058631721   -2.1399322997   -0.5578614280
H       -2.5296507424   -2.1154214847   -0.5745805637
H       -3.7842817793    0.0140872126   -0.0172188977
H       -2.5122772929    2.1298524920    0.5486936885
H        0.0111842445    2.1262266616    0.5764378921
H        3.4374248484   -1.1133777334    0.5141878340
H        1.8730076510   -1.8259013848    1.0518456026
H        3.4050992992    1.1265472905   -0.5409610983
H        1.8185648467    1.8121115362   -1.0462183121
18   
Iteration 5 Energy -376.54112526
C        0.1640139865   -0.0123679532    0.0276432309
C       -0.5503990144   -1.2140641277   -0.2983282566
C       -1.9684540963   -1.1961210426   -0.3148702583
C       -2.6724556155    0.0050167172   -0.0055841256
C       -1.9626597198    1.2009020289    0.3117674540
C       -0.5446022066    1.2025885422    0.3143995333
C        1.6739507477   -0.0087642767   -0.0056436382
N        2.3776468871   -1.0529441344    0.5612873768
N        2.3584794369    1.0607375491   -0.5498856775
H       -0.0016661067   -2.1397705093   -0.5599665290
H       -2.5262406782   -2.1165373473   -0.5759955231
H       -3.7808137879    0.0102705700   -0.0146329026
H       -2.5150724135    2.1292809286    0.5557516974
H        0.0095098647    2.1244810538    0.5779850210
H        3.4277211892   -1.1218300686    0.5219696449
H        1.8550805374   -1.8221386772    1.0515764824
H        3.4095208368    1.1270641808   -0.5471152348
H        1.8234672536    1.8139715012   -1.0513779594
18   
Iteration 6 Energy -376.54113729
C        0.1645326084   -0.0116147769    0.0276608659
C       -0.5522656854   -1.2118454454   -0.2976269713
C       -1.9704563019   -1.1954205586   -0.3139648964
C       -2.6763903084    0.0046779558   -0.0053277470
C       -1.9625340754    1.1986402567    0.3102596221
C       -0.5443236721    1.2033542789    0.3131926678
C        1.6743738582   -0.0098511919   -0.0053252971
N        2.3805205129   -1.0527204034    0.5611250958
N        2.3588119551    1.0596114460   -0.5490816984
H       -0.0040340342   -2.1376834627   -0.5599400345
H       -2.5272048039   -2.1166068049   -0.5745329741
H       -3.7847947811    0.0105876955   -0.0139248620
H       -2.5144514477    2.1273315330    0.5539497059
H        0.0086284846    2.1262047458    0.5758811457
H        3.4305736698   -1.1222923687    0.5211656134
H        1.8585004334   -1.8236801285    1.0492466457
H        3.4098180639    1.1261193142   -0.5447467672
H        1.8238961139    1.8139066186   -1.0490910266
18   
Iteration 7 Energy -376.54113745
C        0.1623408779   -0.0133829736    0.0279401153
C       -0.5542713707   -1.2138039280   -0.2970900376
C       -1.9723737084   -1.1954082908   -0.3131990567
C       -2.6756410802    0.0065600488   -0.0055403757
C       -1.9624911073    1.2013366487    0.3085885527
C       -0.5443440949    1.2034912466    0.3112944568
C        1.6719676280   -0.0136182329   -0.0040696208
N        2.3849297243   -1.0526576422    0.5611272639
N        2.3544483492    1.0571305060   -0.5468024537
H       -0.0069352349   -2.1400676073   -0.5599470897
H       -2.5306668901   -2.1159183420   -0.5728683990
H       -3.7840176687    0.0134474364   -0.0144024656
H       -2.5137068625    2.1308043752    0.5509886559
H        0.0099279874    2.1259652053    0.5725762222
H        3.4352331192   -1.1162355308    0.5167155704
H        1.8683408819   -1.8283475003    1.0475379470
H        3.4052882028    1.1255521660   -0.5398270900
H        1.8185485720    1.8123378249   -1.0444050087
