18   
Iteration 0 Energy -376.54215651
C        0.1529891000    0.0034258000   -0.0109341000
C       -0.5718456000   -0.7335336000   -1.0097175000
C       -1.9891598000   -0.7340235000   -0.9896408000
C       -2.6922260000    0.0006659000    0.0107705000
C       -1.9765297000    0.7361464000    1.0016283000
C       -0.5591128000    0.7360847000    1.0001189000
C        1.6599718000   -0.0025734000   -0.0167808000
N        2.3707013000    0.1281835000    1.1616706000
N        2.3586906000   -0.1480541000   -1.2007645000
H       -0.0337436000   -1.3332438000   -1.7693838000
H       -2.5485445000   -1.3129715000   -1.7501521000
H       -3.8007798000   -0.0003224000    0.0186179000
H       -2.5254733000    1.3134338000    1.7709751000
H       -0.0106554000    1.3357034000    1.7524364000
H        3.4220832000    0.1687448000    1.1842718000
H        1.8620079000    0.1339231000    2.0806735000
H        3.4091602000   -0.2018390000   -1.2353557000
H        1.8413633000   -0.1443219000   -2.1149466000
18   
Iteration 1 Energy -376.54189767
C        0.1537772407    0.0299431824   -0.0247598810
C       -0.5705131469   -0.7457761264   -0.9940458940
C       -1.9877281221   -0.7602776474   -0.9675701538
C       -2.6923969744   -0.0056567882    0.0166930025
C       -1.9749551396    0.7585125655    0.9844609823
C       -0.5575340896    0.7738655289    0.9782143979
C        1.6604561773    0.0186096481   -0.0258453911
N        2.3615842763    0.0737922495    1.1644353256
N        2.3642294185   -0.0999210516   -1.2099822228
H       -0.0303706529   -1.3635225755   -1.7376209032
H       -2.5450706767   -1.3660332289   -1.7084521849
H       -3.8008536694   -0.0162175409    0.0319179883
H       -2.5251107622    1.3472969742    1.7440966163
H       -0.0107125932    1.3924340944    1.7163163635
H        3.4130109576    0.0934537802    1.2054878109
H        1.8408843815    0.0411933298    2.0761428437
H        3.4137732353   -0.1719039868   -1.2391658456
H        1.8536292729   -0.0545573394   -2.1268690712
18   
Iteration 2 Energy -376.54162546
C        0.1507209686    0.0350690772   -0.0341199817
C       -0.5645976611   -0.7654104835   -0.9883535978
C       -1.9817548658   -0.7801341523   -0.9487877442
C       -2.6843362852   -0.0068528213    0.0228020813
C       -1.9762438331    0.7830973401    0.9764556973
C       -0.5588429198    0.7956741037    0.9569377356
C        1.6574636203    0.0182821437   -0.0271406891
N        2.3505213274    0.0281235012    1.1687281611
N        2.3640860767   -0.0626460615   -1.2122008233
H       -0.0216116519   -1.3925077642   -1.7221854181
H       -2.5423191023   -1.4029163548   -1.6728996602
H       -3.7925716867   -0.0230339269    0.0397547289
H       -2.5261480997    1.3847118631    1.7263500268
H       -0.0056978046    1.4270673158    1.6793321907
H        3.4020981790    0.0443345387    1.2148414364
H        1.8228310847   -0.0236187623    2.0759791368
H        3.4135595035   -0.1376656169   -1.2455422135
H        1.8537978981    0.0234471396   -2.1268438284
18   
Iteration 3 Energy -376.54111352
C        0.1518923818    0.0515893058   -0.0398367576
C       -0.5660708984   -0.7803391761   -0.9638932956
C       -1.9836169244   -0.8093353684   -0.9253407385
C       -2.6891251698   -0.0128161568    0.0243270502
C       -1.9742647193    0.8054604740    0.9488500905
C       -0.5564939741    0.8323982295    0.9345649360
C        1.6596356659    0.0241784692   -0.0271162262
N        2.3479798148   -0.0378133415    1.1692685712
N        2.3658284444   -0.0102276281   -1.2139839589
H       -0.0176575826   -1.4203786818   -1.6822229042
H       -2.5394643773   -1.4585698995   -1.6296513777
H       -3.7971926319   -0.0337099824    0.0473662080
H       -2.5263132779    1.4237456493    1.6832573176
H       -0.0045756250    1.4844771303    1.6395510075
H        3.3998037502   -0.0318499367    1.2195489420
H        1.8142374012   -0.1172918268    2.0713896429
H        3.4146879322   -0.0950349574   -1.2523109057
H        1.8556426872    0.1304162892   -2.1223877188
18   
Iteration 4 Energy -376.54113744
C        0.1518968737    0.0442811188   -0.0385410921
C       -0.5661644232   -0.7873247991   -0.9625723472
C       -1.9837822845   -0.8107871035   -0.9224026785
C       -2.6873841272   -0.0110041135    0.0258648080
C       -1.9728345756    0.8092033740    0.9487033908
C       -0.5550337187    0.8300146049    0.9329118613
C        1.6611212360    0.0194798227   -0.0305294912
N        2.3450911435   -0.0439192621    1.1677800115
N        2.3664771767   -0.0045352697   -1.2182581839
H       -0.0190594106   -1.4271748352   -1.6820582885
H       -2.5418228859   -1.4589932716   -1.6259005427
H       -3.7954586244   -0.0297348644    0.0483842631
H       -2.5233922018    1.4315658537    1.6808367795
H       -0.0005697348    1.4812482186    1.6365260597
H        3.3960953577   -0.0291236339    1.2320760449
H        1.8034082741   -0.1208565741    2.0653647887
H        3.4160669569   -0.0820064194   -1.2546203411
H        1.8554590543    0.1350255941   -2.1263138004
18   
Iteration 5 Energy -376.54114876
C        0.1501649521    0.0387516180   -0.0336700550
C       -0.5659604929   -0.7915068150   -0.9602457769
C       -1.9837018077   -0.8113964542   -0.9237183362
C       -2.6868999898   -0.0088715610    0.0224633510
C       -1.9747541266    0.8117294316    0.9466921582
C       -0.5569176716    0.8284889188    0.9342676415
C        1.6605226581    0.0164107246   -0.0266311791
N        2.3498188377   -0.0495282458    1.1679964021
N        2.3622099013   -0.0005282871   -1.2162727335
H       -0.0180699225   -1.4314188136   -1.6790711840
H       -2.5417121953   -1.4583350820   -1.6284122270
H       -3.7950320878   -0.0251158708    0.0418599576
H       -2.5261662174    1.4368544095    1.6758527494
H       -0.0027038172    1.4787145828    1.6389507216
H        3.4012920135   -0.0253694900    1.2220435710
H        1.8143279099   -0.1240978091    2.0695487195
H        3.4119458213   -0.0730310146   -1.2590547788
H        1.8455424922    0.1342869905   -2.1217817200
18   
Iteration 6 Energy -376.54115281
C        0.1505528517    0.0373320916   -0.0332350834
C       -0.5662928328   -0.7915269518   -0.9602953482
C       -1.9841251613   -0.8099499208   -0.9236114548
C       -2.6891013095   -0.0077948828    0.0215888576
C       -1.9748999365    0.8108044975    0.9459386744
C       -0.5569100197    0.8269720516    0.9342352675
C        1.6607757197    0.0164053747   -0.0268536571
N        2.3505139274   -0.0508522085    1.1675283059
N        2.3617103758    0.0006420563   -1.2168635160
H       -0.0192587474   -1.4325171463   -1.6788233760
H       -2.5419307649   -1.4565459621   -1.6287473175
H       -3.7972855658   -0.0231177437    0.0404095205
H       -2.5255721204    1.4361085362    1.6754681452
H       -0.0030401201    1.4761168378    1.6402173604
H        3.4018837288   -0.0222185737    1.2213268112
H        1.8154403357   -0.1217540787    2.0696273807
H        3.4113494691   -0.0722588635   -1.2605769696
H        1.8438046910    0.1310245391   -2.1223324244
18   
Iteration 7 Energy -376.54115449
C        0.1504617788    0.0365479201   -0.0328885198
C       -0.5684072957   -0.7898448384   -0.9605385804
C       -1.9862847407   -0.8095140242   -0.9264199454
C       -2.6889011959   -0.0067208432    0.0200276449
C       -1.9740086708    0.8093525380    0.9461256217
C       -0.5558667220    0.8256665740    0.9354907179
C        1.6601993396    0.0169520888   -0.0282420274
N        2.3503568588   -0.0528066912    1.1660088026
N        2.3599599119    0.0020530723   -1.2188770074
H       -0.0218316002   -1.4321139678   -1.6782314482
H       -2.5442132647   -1.4553964973   -1.6321711228
H       -3.7970928217   -0.0204026103    0.0389795033
H       -2.5245016664    1.4337579823    1.6765395879
H       -0.0021848971    1.4729252578    1.6434147124
H        3.4013546067   -0.0170621785    1.2225300758
H        1.8144820911   -0.1154307965    2.0682231438
H        3.4092971371   -0.0742056423   -1.2628422592
H        1.8407972717    0.1249867934   -2.1246994642
18   
Iteration 8 Energy -376.54115730
C        0.1497849986    0.0369985991   -0.0337564109
C       -0.5681182201   -0.7900635662   -0.9617232779
C       -1.9859086058   -0.8090035713   -0.9258614888
C       -2.6892231180   -0.0070679201    0.0208098925
C       -1.9746172899    0.8096253246    0.9465232689
C       -0.5565798357    0.8259346529    0.9351531601
C        1.6596869033    0.0164437963   -0.0282796161
N        2.3501162802   -0.0528962848    1.1657426607
N        2.3600977832    0.0015520881   -1.2185896000
H       -0.0215077709   -1.4316572521   -1.6800380988
H       -2.5440913452   -1.4546581274   -1.6315902980
H       -3.7974121855   -0.0215058110    0.0398866970
H       -2.5250816464    1.4339395675    1.6770471733
H       -0.0026330503    1.4738414457    1.6422380280
H        3.4011734244   -0.0171147719    1.2214862295
H        1.8145136809   -0.1152505658    2.0681391986
H        3.4093738493   -0.0760501199   -1.2624035994
H        1.8414214466    0.1260060853   -2.1244345956
