18   
Iteration 0 Energy -376.54167428
C        0.1549037000    0.0197502000   -0.0173354000
C       -0.5782072000   -0.3964314000   -1.1834547000
C       -1.9949636000   -0.4004283000   -1.1643819000
C       -2.6985559000   -0.0035545000    0.0113634000
C       -1.9788808000    0.4013511000    1.1744033000
C       -0.5619704000    0.4146240000    1.1661917000
C        1.6621917000    0.0046827000   -0.0214908000
N        2.3872020000    0.6758125000    0.9479220000
N        2.3641605000   -0.7112807000   -0.9746394000
H       -0.0525966000   -0.6772585000   -2.1166537000
H       -2.5541760000   -0.7091481000   -2.0690175000
H       -3.8071604000   -0.0112799000    0.0216771000
H       -2.5247033000    0.6989903000    2.0908727000
H       -0.0223147000    0.6991239000    2.0900470000
H        3.4389357000    0.6647872000    0.9717063000
H        1.8983838000    1.3220241000    1.6152887000
H        3.4156283000   -0.7214797000   -1.0043998000
H        1.8536670000   -1.3232408000   -1.6576947000
18   
Iteration 1 Energy -376.54112660
C        0.1558618133    0.0490605355   -0.0309565093
C       -0.5795708916   -0.4118273862   -1.1787625774
C       -1.9960925836   -0.4310162059   -1.1553785967
C       -2.6961861531   -0.0105472885    0.0141186113
C       -1.9752457955    0.4277153851    1.1642331502
C       -0.5586362054    0.4559023504    1.1499349099
C        1.6628746594    0.0249999908   -0.0343937586
N        2.3817835532    0.6330355032    0.9798332680
N        2.3648009544   -0.6721623510   -1.0017089357
H       -0.0549890142   -0.7151406647   -2.1054295109
H       -2.5560335585   -0.7704484518   -2.0485322727
H       -3.8045590357   -0.0293796772    0.0308919287
H       -2.5201093909    0.7383767844    2.0769379580
H       -0.0175476899    0.7616831590    2.0661638715
H        3.4327783741    0.5981673119    1.0104988968
H        1.8966858075    1.2537492231    1.6737286352
H        3.4161042189   -0.7025226639   -1.0217126118
H        1.8511298984   -1.2525824590   -1.7094045324
18   
Iteration 2 Energy -376.54082698
C        0.1556197922    0.0596539284   -0.0318720995
C       -0.5796046303   -0.4287548425   -1.1688558276
C       -1.9958935051   -0.4556163850   -1.1441932734
C       -2.7039298380   -0.0159916040    0.0132789246
C       -1.9851142369    0.4487262880    1.1539757777
C       -0.5687463693    0.4826572064    1.1381704309
C        1.6640830575    0.0312058158   -0.0284501431
N        2.4007279704    0.5930776579    0.9999303450
N        2.3616298243   -0.6359640711   -1.0195676381
H       -0.0560037360   -0.7492478313   -2.0902626458
H       -2.5518952976   -0.8183930697   -2.0305461487
H       -3.8122447011   -0.0410011356    0.0284592117
H       -2.5312111728    0.7748633117    2.0605373146
H       -0.0345372290    0.8112851653    2.0502494984
H        3.4515898076    0.5482863464    1.0193761619
H        1.9303761481    1.1979550087    1.7170574489
H        3.4127095561   -0.6730914513   -1.0354188900
H        1.8465884237   -1.1817257792   -1.7530195878
18   
Iteration 3 Energy -376.54049427
C        0.1544143347    0.0613012030   -0.0375042111
C       -0.5835397679   -0.4640622289   -1.1575085384
C       -1.9991914939   -0.4939738372   -1.1260312062
C       -2.7046205591   -0.0171241474    0.0180893796
C       -1.9845654066    0.4886612864    1.1401194271
C       -0.5686480057    0.5231573884    1.1197146155
C        1.6638315322    0.0251508297   -0.0292479737
N        2.3968888777    0.5233631448    1.0346917127
N        2.3707432534   -0.5790777138   -1.0542828045
H       -0.0668929009   -0.8156281298   -2.0714481010
H       -2.5568842718   -0.8900920596   -1.9968896913
H       -3.8128401502   -0.0439747955    0.0370585380
H       -2.5287543697    0.8469688821    2.0356023866
H       -0.0368579394    0.8929335449    2.0172399915
H        3.4479255277    0.4867229707    1.0546432451
H        1.9242638823    1.0878191510    1.7822039173
H        3.4216742852   -0.6181927180   -1.0542279738
H        1.8672394894   -1.0641493049   -1.8360720866
18   
Iteration 4 Energy -376.54058957
C        0.1548740346    0.0388277622   -0.0286157645
C       -0.5845468473   -0.4829217597   -1.1487846457
C       -2.0006727957   -0.5017946380   -1.1249084185
C       -2.6985454718   -0.0099889173    0.0176336363
C       -1.9754604616    0.5006235376    1.1360822413
C       -0.5590591722    0.5238703217    1.1237355472
C        1.6630095291    0.0088948406   -0.0289360424
N        2.3774625784    0.5096774814    1.0464137794
N        2.3778265911   -0.5644390741   -1.0667274739
H       -0.0678214531   -0.8502813435   -2.0563764414
H       -2.5604132154   -0.8988713398   -1.9941015325
H       -3.8069462100   -0.0259639783    0.0366073127
H       -2.5195510683    0.8759798186    2.0245491481
H       -0.0247920823    0.9082280016    2.0139224389
H        3.4292511935    0.5009271592    1.0548173877
H        1.8926190494    1.0453332756    1.8075638751
H        3.4288714600   -0.5986108271   -1.0751188360
H        1.8764280376   -1.0301270547   -1.8616996364
18   
Iteration 5 Energy -376.54077156
C        0.1561141226    0.0069706695   -0.0089037290
C       -0.5821594128   -0.5119439119   -1.1300174841
C       -1.9990397336   -0.5138409765   -1.1166075717
C       -2.7062593129   -0.0031539666    0.0118545294
C       -1.9860736040    0.5162637593    1.1280592483
C       -0.5691218894    0.5209259223    1.1233100526
C        1.6647183141   -0.0063684591   -0.0141012465
N        2.3960038105    0.4874805388    1.0533017613
N        2.3738968098   -0.5329664353   -1.0792582759
H       -0.0639612847   -0.9057888907   -2.0255325562
H       -2.5543373549   -0.9151128082   -1.9866665925
H       -3.8149254918   -0.0074365450    0.0201003587
H       -2.5316640187    0.9165633120    2.0046715680
H       -0.0415066814    0.9283815030    2.0070399693
H        3.4473692236    0.5155694031    1.0317548590
H        1.9177738336    0.9774574719    1.8483650156
H        3.4250465281   -0.5575675077   -1.1003918503
H        1.8685496817   -0.9666086102   -1.8899776506
18   
Iteration 6 Energy -376.54078115
C        0.1541178146   -0.0052876352   -0.0104663276
C       -0.5844199450   -0.5249992869   -1.1321926689
C       -2.0008595668   -0.5162987917   -1.1131840316
C       -2.7031747709    0.0046466254    0.0134387604
C       -1.9817001080    0.5237094904    1.1286301938
C       -0.5651973457    0.5201981514    1.1208854707
C        1.6633948453   -0.0114453225   -0.0191242289
N        2.3912041094    0.4837019738    1.0496571064
N        2.3766086810   -0.5247949069   -1.0876972177
H       -0.0709874903   -0.9330326208   -2.0240938992
H       -2.5608654273   -0.9176113562   -1.9801479039
H       -3.8118305277    0.0073353227    0.0218209673
H       -2.5243794504    0.9305684759    2.0040394255
H       -0.0334693229    0.9291956678    2.0015302114
H        3.4420224922    0.5301854549    1.0471587271
H        1.8985823994    0.9430868679    1.8538212474
H        3.4281414999   -0.5385489036   -1.0885885392
H        1.8833065085   -0.9525955582   -1.9085377105
18   
Iteration 7 Energy -376.54082194
C        0.1550268441   -0.0014376044   -0.0083108141
C       -0.5857601018   -0.5223615763   -1.1283164952
C       -2.0022312093   -0.5172372950   -1.1149607563
C       -2.7055139089    0.0040715606    0.0106344636
C       -1.9830744938    0.5217445722    1.1258522587
C       -0.5665470450    0.5219836596    1.1226915723
C        1.6648692932   -0.0073394630   -0.0175365274
N        2.3947429635    0.4886550156    1.0489258047
N        2.3773998446   -0.5243543250   -1.0851658038
H       -0.0707759541   -0.9317039460   -2.0186215802
H       -2.5598296987   -0.9197204177   -1.9829770479
H       -3.8141807333    0.0065367291    0.0188231432
H       -2.5273292933    0.9260353458    2.0014336186
H       -0.0376151229    0.9282648066    2.0062745533
H        3.4457554916    0.5256147749    1.0366767814
H        1.9082493234    0.9443891676    1.8587981734
H        3.4287863377   -0.5435708438   -1.0937753017
H        1.8794634426   -0.9514602362   -1.9033433404
18   
Iteration 8 Energy -376.54081961
C        0.1553136150   -0.0004303778   -0.0095797724
C       -0.5820187505   -0.5242769170   -1.1297743873
C       -1.9985135127   -0.5177868919   -1.1123673526
C       -2.7041523610    0.0048668324    0.0114608747
C       -1.9848051815    0.5239655303    1.1279672642
C       -0.5682205519    0.5228155078    1.1202845076
C        1.6647352306   -0.0057935419   -0.0175183530
N        2.3914042230    0.4931820153    1.0495487461
N        2.3781449067   -0.5230887201   -1.0848545232
H       -0.0661365659   -0.9356252162   -2.0187686684
H       -2.5565057980   -0.9216125633   -1.9794644801
H       -3.8128225555    0.0066442490    0.0177603448
H       -2.5288783888    0.9283112289    2.0036995178
H       -0.0385041529    0.9279660340    2.0038585740
H        3.4425691562    0.5206041876    1.0348872852
H        1.9063262743    0.9407545100    1.8647933983
H        3.4293022297   -0.5469371729   -1.1016574557
H        1.8760485406   -0.9455882213   -1.9029703992
18   
Iteration 9 Energy -376.54084370
C        0.1554247465   -0.0012101758   -0.0076592227
C       -0.5830680513   -0.5259355477   -1.1266348315
C       -1.9996533039   -0.5204633489   -1.1131003524
C       -2.7042664873    0.0045359529    0.0102012076
C       -1.9834856386    0.5249982922    1.1253271147
C       -0.5668118080    0.5247200617    1.1214770123
C        1.6647073074   -0.0063105556   -0.0170382980
N        2.3938122279    0.4931984696    1.0481892858
N        2.3758923183   -0.5207644337   -1.0870595517
H       -0.0663350054   -0.9393658057   -2.0141399713
H       -2.5568347042   -0.9257525184   -1.9800739642
H       -3.8129330867    0.0072726273    0.0169567478
H       -2.5282321222    0.9312908092    1.9997004330
H       -0.0377774523    0.9320600642    2.0045013872
H        3.4450586026    0.5189888465    1.0384450422
H        1.9079643605    0.9319506224    1.8676825846
H        3.4271201975   -0.5425120772   -1.1015631339
H        1.8742539915   -0.9389923874   -1.9077529751
18   
Iteration 10 Energy -376.54085165
C        0.1563465509   -0.0031597187   -0.0083014714
C       -0.5850114964   -0.5292038286   -1.1250787898
C       -2.0015946230   -0.5228473078   -1.1113754965
C       -2.7054283225    0.0052521386    0.0108270347
C       -1.9827466036    0.5278658201    1.1236327768
C       -0.5660855914    0.5262544915    1.1190901522
C        1.6660931363   -0.0075297817   -0.0182231559
N        2.3934825337    0.4941457299    1.0468116339
N        2.3790186776   -0.5177077207   -1.0889739582
H       -0.0701783355   -0.9459903204   -2.0120198351
H       -2.5593332042   -0.9299960029   -1.9771241733
H       -3.8140936144    0.0090037776    0.0183604959
H       -2.5263641902    0.9374370856    1.9971705832
H       -0.0367017013    0.9369504834    2.0003475356
H        3.4448476381    0.5141897779    1.0431260514
H        1.9056024326    0.9178067107    1.8729193662
H        3.4303833236   -0.5352105941   -1.0992241680
H        1.8806800936   -0.9301179838   -1.9144791886
18   
Iteration 11 Energy -376.54085862
C        0.1552433407   -0.0035109483   -0.0069291269
C       -0.5837996434   -0.5339578948   -1.1234073577
C       -2.0002817639   -0.5279951964   -1.1103893252
C       -2.7035082387    0.0042763832    0.0101523113
C       -1.9821376661    0.5318957425    1.1214440234
C       -0.5655888431    0.5310702448    1.1191896455
C        1.6651425496   -0.0067113129   -0.0168999980
N        2.3953689498    0.4976131092    1.0445369540
N        2.3769040823   -0.5124783454   -1.0903171730
H       -0.0680319307   -0.9543885042   -2.0081054736
H       -2.5578837043   -0.9387043006   -1.9745412771
H       -3.8121672329    0.0077851073    0.0173641514
H       -2.5269267310    0.9453272311    1.9924136027
H       -0.0366504164    0.9475439961    1.9980518206
H        3.4468585889    0.5022251347    1.0459093725
H        1.9095420245    0.8972820967    1.8835562353
H        3.4282853774   -0.5268330440   -1.1038199628
H        1.8773248851   -0.9139980023   -1.9203540918
18   
Iteration 12 Energy -376.54086198
C        0.1565370523   -0.0029153017   -0.0076422261
C       -0.5829598112   -0.5336079110   -1.1232502626
C       -1.9995451191   -0.5278489586   -1.1093050257
C       -2.7038390531    0.0040624114    0.0108710533
C       -1.9820766277    0.5322806069    1.1216478075
C       -0.5654034948    0.5313161884    1.1177724795
C        1.6661022140   -0.0067759336   -0.0177287236
N        2.3945598517    0.4986848367    1.0448062271
N        2.3778015801   -0.5137244442   -1.0908896824
H       -0.0671513139   -0.9536292863   -2.0081698244
H       -2.5570352956   -0.9389012170   -1.9733577306
H       -3.8125058234    0.0069184682    0.0181636477
H       -2.5263284600    0.9459163166    1.9928702054
H       -0.0362155091    0.9486058559    1.9960398149
H        3.4460678014    0.5014670082    1.0505240057
H        1.9068615452    0.8965576778    1.8836845398
H        3.4291170429   -0.5276864253   -1.1073778140
H        1.8771154389   -0.9143070481   -1.9208230069
18   
Iteration 13 Energy -376.54086197
C        0.1565362056   -0.0028713560   -0.0078610041
C       -0.5827644432   -0.5334941790   -1.1236346711
C       -1.9993370152   -0.5277500281   -1.1094574250
C       -2.7032397484    0.0040032099    0.0110669128
C       -1.9823772016    0.5324160546    1.1223259708
C       -0.5657285917    0.5311432305    1.1174900561
C        1.6660923189   -0.0068084382   -0.0177208170
N        2.3945679771    0.4985437528    1.0448892691
N        2.3778704696   -0.5144056127   -1.0904683047
H       -0.0669584847   -0.9532476467   -2.0086807415
H       -2.5570069159   -0.9385827252   -1.9735042691
H       -3.8118967307    0.0066118168    0.0182766051
H       -2.5266310088    0.9459164230    1.9936301912
H       -0.0363752752    0.9486030801    1.9955678826
H        3.4461182460    0.5002647483    1.0483617506
H        1.9080534450    0.8974060919    1.8840500731
H        3.4292354756   -0.5262425835   -1.1054919619
H        1.8782561240   -0.9150678759   -1.9210375436
