18   
Iteration 0 Energy -376.54114356
C        0.1627258000   -0.0138714000   -0.0251669000
C       -0.5545356000   -1.2030431000    0.3382538000
C       -1.9726692000   -1.1829401000    0.3525495000
C       -2.6762878000    0.0076817000    0.0044125000
C       -1.9624000000    1.1909733000   -0.3489221000
C       -0.5442739000    1.1922471000   -0.3505887000
C        1.6725837000   -0.0128274000    0.0060039000
N        2.3801010000   -1.0720616000   -0.5277055000
N        2.3578484000    1.0739271000    0.5129244000
H       -0.0081206000   -2.1203569000    0.6323781000
H       -2.5313547000   -2.0941932000    0.6422446000
H       -3.7846829000    0.0148140000    0.0120580000
H       -2.5129425000    2.1120187000   -0.6229500000
H        0.0102044000    2.1053732000   -0.6424907000
H        3.4295630000   -1.1423581000   -0.4752657000
H        1.8586780000   -1.8669711000   -0.9763920000
H        3.4085067000    1.1434551000    0.4976203000
H        1.8232528000    1.8497451000    0.9790909000
18   
Iteration 1 Energy -376.54027826
C        0.1641953818   -0.0245329817   -0.0370235685
C       -0.5612089157   -1.1960244128    0.3655645886
C       -1.9792974425   -1.1740502772    0.3829402590
C       -2.6783311859    0.0100499281    0.0050637671
C       -1.9578134694    1.1806224741   -0.3761703014
C       -0.5395960167    1.1782709757   -0.3808349080
C        1.6734108393   -0.0231694669    0.0156056012
N        2.3888070317   -1.0477459204   -0.5725505468
N        2.3505333964    1.0513938538    0.5580253980
H       -0.0179412168   -2.1061705814    0.6864749558
H       -2.5399287353   -2.0753247486    0.6990180166
H       -3.7866652264    0.0229933828    0.0143959624
H       -2.5049423365    2.0979556644   -0.6687513983
H        0.0170382717    2.0841146266   -0.6907625594
H        3.4388071091   -1.1136840195   -0.5248835380
H        1.8726960720   -1.8218585621   -1.0619649022
H        3.4005723746    1.1301436195    0.5448039570
H        1.8099574951    1.8071765776    1.0495241413
18   
Iteration 2 Energy -376.53967556
C        0.1585372109   -0.0326624451   -0.0449259007
C       -0.5565075838   -1.1987490903    0.3885821843
C       -1.9743265804   -1.1616235533    0.4073014818
C       -2.6727962098    0.0159138566    0.0080544601
C       -1.9562253491    1.1793486057   -0.4006946533
C       -0.5381300219    1.1686705703   -0.4077058651
C        1.6685123420   -0.0273849085    0.0117546179
N        2.3902537336   -1.0269255855   -0.6105679848
N        2.3373559378    1.0315070806    0.5930332960
H       -0.0125256704   -2.1042428258    0.7220381562
H       -2.5388213939   -2.0529821992    0.7436023707
H       -3.7809971001    0.0299249375    0.0222639940
H       -2.5022304264    2.0923483578   -0.7087048357
H        0.0238792102    2.0651957962   -0.7346745056
H        3.4406429154   -1.0913472169   -0.5623494378
H        1.8772681583   -1.7911785900   -1.1190928671
H        3.3872461425    1.1166538811    0.5882112431
H        1.7899268525    1.7643521195    1.1116189802
18   
Iteration 3 Energy -376.53871618
C        0.1596195482   -0.0381333746   -0.0578899723
C       -0.5640986407   -1.1822617737    0.4165602336
C       -1.9824695851   -1.1495278342    0.4445286403
C       -2.6770828605    0.0179106050    0.0126166327
C       -1.9544507453    1.1639349526   -0.4327746897
C       -0.5358858842    1.1546946336   -0.4465605092
C        1.6719726232   -0.0327073330    0.0076956267
N        2.4008674284   -0.9936034582   -0.6644470109
N        2.3325717338    0.9991403571    0.6434547816
H       -0.0195651234   -2.0796692112    0.7698254160
H       -2.5457276454   -2.0296569334    0.8113518182
H       -3.7850551739    0.0381585891    0.0309206621
H       -2.4992312523    2.0697012087   -0.7633352245
H        0.0267945757    2.0415289174   -0.7978083732
H        3.4515233339   -1.0574339550   -0.6132933625
H        1.8919977798   -1.7398552685   -1.2036539010
H        3.3824389919    1.0885491516    0.6523587459
H        1.7775220587    1.7011749240    1.1961520448
18   
Iteration 4 Energy -376.53876313
C        0.1594611105   -0.0356704761   -0.0517353099
C       -0.5618256641   -1.1803194273    0.4231438784
C       -1.9804650807   -1.1464520658    0.4489601237
C       -2.6777649446    0.0177318367    0.0124343155
C       -1.9565982285    1.1622411822   -0.4388930005
C       -0.5378074117    1.1519714138   -0.4510214186
C        1.6741443440   -0.0286921741    0.0049152859
N        2.3982025339   -0.9873813157   -0.6745722737
N        2.3355228718    0.9952763298    0.6520951999
H       -0.0172070493   -2.0776412255    0.7762087705
H       -2.5431570464   -2.0260577190    0.8178442495
H       -3.7857577806    0.0360385051    0.0299321580
H       -2.5014969937    2.0658515251   -0.7751612255
H        0.0249052075    2.0371739416   -0.8060574304
H        3.4486697940   -1.0570337551   -0.6246395480
H        1.8848913178   -1.7322493737   -1.2116506816
H        3.3857386507    1.0813640876    0.6658562166
H        1.7801950121    1.6950163662    1.2075261838
18   
Iteration 5 Energy -376.53876307
C        0.1564917760   -0.0307705861   -0.0425993195
C       -0.5603296379   -1.1781098838    0.4310556102
C       -1.9790446526   -1.1480072825    0.4542990659
C       -2.6731317344    0.0154648376    0.0111774187
C       -1.9545219176    1.1597823058   -0.4444668909
C       -0.5356791112    1.1548195758   -0.4549907626
C        1.6728967237   -0.0258959804    0.0041143959
N        2.3919840081   -0.9806392669   -0.6848058369
N        2.3364915027    0.9897676854    0.6608424444
H       -0.0141656296   -2.0738812150    0.7855683009
H       -2.5417181116   -2.0273766972    0.8238671877
H       -3.7811130223    0.0326782026    0.0254741166
H       -2.5014442467    2.0597677516   -0.7870211142
H        0.0272505696    2.0390888327   -0.8121486538
H        3.4423557039   -1.0553178877   -0.6370281648
H        1.8741819975   -1.7237117402   -1.2202269481
H        3.3869315643    1.0738259858    0.6772602136
H        1.7810980194    1.6905822176    1.2149306797
18   
Iteration 6 Energy -376.53877895
C        0.1588301305   -0.0319670459   -0.0406902408
C       -0.5607988418   -1.1780912824    0.4310704968
C       -1.9796431401   -1.1457273043    0.4520927905
C       -2.6772502532    0.0159196424    0.0096939125
C       -1.9566272466    1.1596880938   -0.4435446166
C       -0.5376186860    1.1516935471   -0.4516982562
C        1.6751207375   -0.0270226656    0.0058631148
N        2.3944617965   -0.9809325993   -0.6839883871
N        2.3390315099    0.9899624803    0.6600825997
H       -0.0166199276   -2.0742825857    0.7876101412
H       -2.5420963543   -2.0255775661    0.8207287545
H       -3.7852924211    0.0323278571    0.0232342641
H       -2.5017678502    2.0607085163   -0.7862465797
H        0.0248226093    2.0369551036   -0.8069688302
H        3.4450002905   -1.0538242216   -0.6375875644
H        1.8770233633   -1.7249273332   -1.2184447859
H        3.3893179662    1.0760927995    0.6727420448
H        1.7838806813    1.6926973159    1.2119288318
18   
Iteration 7 Energy -376.53877964
C        0.1591957766   -0.0319489884   -0.0418160798
C       -0.5605355638   -1.1783385016    0.4297433408
C       -1.9793824764   -1.1471774673    0.4510297510
C       -2.6760156279    0.0152757995    0.0090417804
C       -1.9565607582    1.1603481498   -0.4430310333
C       -0.5376083356    1.1522950809   -0.4508327431
C        1.6749999142   -0.0262189444    0.0071129682
N        2.3929893697   -0.9819002423   -0.6822153976
N        2.3395211127    0.9916040154    0.6599868969
H       -0.0158261563   -2.0740846212    0.7865780513
H       -2.5418544155   -2.0272846158    0.8190698962
H       -3.7840539252    0.0315047188    0.0224454979
H       -2.5020402841    2.0615809555   -0.7846952573
H        0.0247085093    2.0379889935   -0.8052156913
H        3.4434685404   -1.0553986636   -0.6366106014
H        1.8746483022   -1.7263810849   -1.2150988989
H        3.3897740703    1.0782533672    0.6690079372
H        1.7854851465    1.6951572355    1.2118967523
