18   
Dihedral (-165,) Energy -376.541676037
C        0.1529192339   -0.0267915926    0.0057192365
C       -0.5793988166   -0.6670462038   -1.0546347328
C       -1.9961399726   -0.6501991363   -1.0473146164
C       -2.6996789972    0.0098720312    0.0034695510
C       -1.9808708625    0.6554342708    1.0528142524
C       -0.5639992333    0.6411298608    1.0595319077
C        1.6601720988   -0.0190020407   -0.0092548587
N        2.3844195649    0.3074659470    1.1239445290
N        2.3621942660   -0.3031386311   -1.1669809991
H       -0.0529168017   -1.2129054838   -1.8613794911
H       -2.5547892598   -1.1559005533   -1.8588496665
H       -3.8082772662    0.0226928798    0.0035444072
H       -2.5275292723    1.1776911092    1.8620320710
H       -0.0249757422    1.1781858104    1.8637321965
H        3.4359569940    0.3389401354    1.1268732820
H        1.8962241710    0.4182593149    2.0465689075
H        3.4136254399   -0.3205623181   -1.1941124958
H        1.8513276459   -0.4471962955   -2.0724475500
18   
Dihedral (-150,) Energy -376.542156510
C        0.1529890899    0.0034257694   -0.0109341119
C       -0.5718455969   -0.7335335980   -1.0097174659
C       -1.9891597626   -0.7340234663   -0.9896408323
C       -2.6922260398    0.0006658943    0.0107704951
C       -1.9765297394    0.7361464436    1.0016282922
C       -0.5591127958    0.7360847298    1.0001189050
C        1.6599718418   -0.0025733804   -0.0167807853
N        2.3707012917    0.1281835206    1.1616706441
N        2.3586906244   -0.1480540660   -1.2007645306
H       -0.0337436028   -1.3332437643   -1.7693837888
H       -2.5485445342   -1.3129715430   -1.7501521317
H       -3.8007797865   -0.0003224077    0.0186178885
H       -2.5254732664    1.3134338385    1.7709750593
H       -0.0106553577    1.3357033890    1.7524364130
H        3.4220832260    0.1687448472    1.1842717663
H        1.8620078976    0.1339230515    2.0806735083
H        3.4091601600   -0.2018390259   -1.2353557364
H        1.8413632656   -0.1443219299   -2.1149465834
18   
Dihedral (-135,) Energy -376.541155926
C        0.1541917228    0.0383964149   -0.0314905308
C       -0.5624116822   -0.7866697470   -0.9624152900
C       -1.9801702451   -0.8074947313   -0.9280199579
C       -2.6841635783   -0.0092551738    0.0212471821
C       -1.9720679480    0.8059043372    0.9503088345
C       -0.5541510187    0.8233163300    0.9394354246
C        1.6639234131    0.0174197983   -0.0238296174
N        2.3540968942   -0.0545981680    1.1703192237
N        2.3664711878    0.0057694757   -1.2128442103
H       -0.0145672872   -1.4251068774   -1.6826045083
H       -2.5372822912   -1.4513126834   -1.6362880667
H       -3.7923355424   -0.0251410196    0.0395660765
H       -2.5238827269    1.4272583835    1.6823645022
H       -0.0014249991    1.4705405738    1.6481139813
H        3.4049695058   -0.0118136039    1.2249206836
H        1.8187871562   -0.1103127971    2.0733444546
H        3.4149213884   -0.0819210002   -1.2564995005
H        1.8481423082    0.1221912350   -2.1198937900
18   
Dihedral (-120,) Energy -376.538808565
C        0.1534158084    0.0602472556   -0.0469856543
C       -0.5529057163   -0.8516847633   -0.8984407904
C       -1.9710784959   -0.8821554993   -0.8518728411
C       -2.6790224068   -0.0151809764    0.0308448041
C       -1.9711524157    0.8794528618    0.8861635531
C       -0.5526458757    0.9086518843    0.8675147360
C        1.6693748238    0.0313436533   -0.0268417746
N        2.3391617474   -0.2362398949    1.1495835772
N        2.3795033908    0.1719388441   -1.2012086997
H        0.0008124152   -1.5344677396   -1.5719223515
H       -2.5246954096   -1.5883726979   -1.5008828372
H       -3.7866714376   -0.0407497727    0.0566227796
H       -2.5252820810    1.5506880971    1.5708584997
H        0.0008378511    1.6053977166    1.5268054576
H        3.3898385366   -0.2184893628    1.2323316902
H        1.7835360221   -0.3804403850    2.0312455354
H        3.4281526302    0.0810842473   -1.2526662761
H        1.8645935603    0.4054542899   -2.0882742116
18   
Dihedral (-105,) Energy -376.536060410
C        0.1526874538    0.0490482859   -0.0394480731
C       -0.5474361835   -0.9422145186   -0.7982886038
C       -1.9670736688   -0.9633876638   -0.7588812216
C       -2.6784704604   -0.0114619463    0.0269919251
C       -1.9737091798    0.9633340178    0.7906862695
C       -0.5537997767    0.9890586351    0.7757292179
C        1.6782908056    0.0270664204   -0.0181477850
N        2.3450521772   -0.4259659507    1.0995448495
N        2.3877390007    0.3826721821   -1.1443907478
H        0.0086190447   -1.6844754598   -1.4031112454
H       -2.5177271165   -1.7282392826   -1.3404062287
H       -3.7860569470   -0.0323157365    0.0481584774
H       -2.5288639876    1.7005868661    1.4027566227
H       -0.0017236119    1.7431638878    1.3694227636
H        3.3968920619   -0.4317809071    1.1793287641
H        1.7885775413   -0.7095523898    1.9469831928
H        3.4394474103    0.3331828962   -1.2069658648
H        1.8649689490    0.7357995473   -1.9869992838
18   
Dihedral (-90,) Energy -376.534737635
C        0.1521015396   -0.0004180235   -0.0030196309
C       -0.5544645322   -1.0579708271   -0.6557725621
C       -1.9752924601   -1.0472471641   -0.6439435388
C       -2.6789127452    0.0038661761    0.0105411596
C       -1.9657193831    1.0528384670    0.6580511338
C       -0.5447952828    1.0591949849    0.6566315854
C        1.6834144958   -0.0035639839   -0.0099756194
N        2.3725793097   -0.6335778305    1.0017463051
N        2.3689032962    0.6256325007   -1.0247543537
H       -0.0044296726   -1.8734059763   -1.1639271237
H       -2.5314945509   -1.8620095856   -1.1470710322
H       -3.7867289626    0.0056175387    0.0158553558
H       -2.5145762839    1.8693451954    1.1663836796
H        0.0126088953    1.8733029096    1.1588576936
H        3.4259176836   -0.6719727035    1.0512201020
H        1.8305457507   -1.1099146517    1.7685918829
H        3.4221760022    0.6555691660   -1.0814243700
H        1.8247959908    1.1030385434   -1.7894835120
18   
Dihedral (-75,) Energy -376.536049125
C        0.1548164254   -0.0339092119    0.0340636188
C       -0.5617996462   -1.1481401943   -0.5066957116
C       -1.9817378910   -1.1157360286   -0.5214847211
C       -2.6779223533    0.0153178602   -0.0062001010
C       -1.9570210900    1.1278961469    0.5160827418
C       -0.5369113279    1.1195766425    0.5235234477
C        1.6800234629   -0.0266617675   -0.0061890852
N        2.3988982995   -0.8166441099    0.8645245555
N        2.3386760811    0.8343019070   -0.8567393514
H       -0.0174875237   -2.0226356317   -0.9128715658
H       -2.5439411937   -1.9730910759   -0.9400578928
H       -3.7857321941    0.0323382907   -0.0164691205
H       -2.5005979271    2.0071168676    0.9134509024
H        0.0266280380    1.9837386455    0.9254770515
H        3.4519983644   -0.8771374025    0.8526575144
H        1.8807106448   -1.4557658614    1.5212822808
H        3.3892001930    0.9216480142   -0.8917872062
H        1.7763720041    1.4267777516   -1.5206471056
18   
Dihedral (-60,) Energy -376.538781482
C        0.1595911880   -0.0295967022    0.0425099813
C       -0.5591471117   -1.1924312457   -0.3885926317
C       -1.9780024689   -1.1635172330   -0.4106325177
C       -2.6756301408    0.0128805517   -0.0090315991
C       -1.9563798854    1.1731863249    0.4027063335
C       -0.5374060916    1.1677901193    0.4107462708
C        1.6754763281   -0.0248721624   -0.0056279203
N        2.3957716115   -0.9540699645    0.7166831341
N        2.3389766153    0.9690247529   -0.6950347464
H       -0.0136367675   -2.0994624779   -0.7143516180
H       -2.5396832810   -2.0564515718   -0.7476763220
H       -3.7836906672    0.0278623327   -0.0225734090
H       -2.5026472107    2.0851639700    0.7131172846
H        0.0240748194    2.0658458912    0.7340340000
H        3.4462815977   -1.0277937503    0.6713000898
H        1.8791891604   -1.6817118379    1.2740061578
H        3.3888959324    1.0595600954   -0.7048497125
H        1.7833995793    1.6544749564   -1.2677534393
18   
Dihedral (-45,) Energy -376.541137452
C        0.1623408779   -0.0133829736    0.0279401153
C       -0.5542713707   -1.2138039280   -0.2970900376
C       -1.9723737084   -1.1954082908   -0.3131990567
C       -2.6756410802    0.0065600488   -0.0055403757
C       -1.9624911073    1.2013366487    0.3085885527
C       -0.5443440949    1.2034912466    0.3112944568
C        1.6719676280   -0.0136182329   -0.0040696208
N        2.3849297243   -1.0526576422    0.5611272639
N        2.3544483492    1.0571305060   -0.5468024537
H       -0.0069352349   -2.1400676073   -0.5599470897
H       -2.5306668901   -2.1159183420   -0.5728683990
H       -3.7840176687    0.0134474364   -0.0144024656
H       -2.5137068625    2.1308043752    0.5509886559
H        0.0099279874    2.1259652053    0.5725762222
H        3.4352331192   -1.1162355308    0.5167155704
H        1.8683408819   -1.8283475003    1.0475379470
H        3.4052882028    1.1255521660   -0.5398270900
H        1.8185485720    1.8123378249   -1.0444050087
18   
Dihedral (-30,) Energy -376.542157994
C        0.1665001710   -0.0009121691    0.0030590889
C       -0.5519872847   -1.2270552609   -0.2114607174
C       -1.9694712535   -1.2181987958   -0.2169142925
C       -2.6790822590    0.0002683809   -0.0005999470
C       -1.9689621035    1.2183599599    0.2163379732
C       -0.5514800081    1.2263215587    0.2128540792
C        1.6734668748   -0.0009297122   -0.0008434239
N        2.3780849344   -1.1192193426    0.4041779720
N        2.3765175321    1.1191429191   -0.4036211024
H       -0.0085386546   -2.1706824743   -0.4128841477
H       -2.5237450641   -2.1600417039   -0.3963472238
H       -3.7876767398    0.0006720566   -0.0015399181
H       -2.5228936808    2.1607825571    0.3937842832
H       -0.0077956006    2.1698635818    0.4140129772
H        3.4289056703   -1.1675176400    0.3720380842
H        1.8643823032   -1.9410223122    0.8093843972
H        3.4273635672    1.1686455856   -0.3741746389
H        1.8613708717    1.9402209831   -0.8084470089
18   
Dihedral (-15,) Energy -376.541672245
C        0.1669418828    0.0025491408   -0.0156830848
C       -0.5576552561   -1.2362126581   -0.1203594567
C       -1.9745783571   -1.2313134018   -0.1186523814
C       -2.6865962997   -0.0011035252    0.0010727750
C       -1.9753906765    1.2297221078    0.1188233343
C       -0.5584700802    1.2385156834    0.1128321858
C        1.6740630471    0.0027073794    0.0049002410
N        2.3835492843   -1.1632772067    0.2333557696
N        2.3895934744    1.1607705065   -0.2425695982
H       -0.0240671965   -2.1980626570   -0.2462853842
H       -2.5265737948   -2.1865503823   -0.2148910276
H       -3.7952697714   -0.0019364618    0.0051568272
H       -2.5286081465    2.1832393292    0.2243850373
H       -0.0258718993    2.2006175801    0.2417564541
H        3.4351171183   -1.1931173304    0.2290070789
H        1.8789762011   -2.0344714201    0.5303193712
H        3.4407410220    1.1895269359   -0.2142182883
H        1.8894305730    2.0377393093   -0.5295747929
18   
Dihedral (0,) Energy -376.540862115
C        0.1676158557   -0.0000555533    0.0003022256
C       -0.5633208896   -1.2404105573    0.0217453704
C       -1.9799435287   -1.2346867303    0.0214529469
C       -2.6917183619    0.0009104347   -0.0000750723
C       -1.9790928619    1.2360181497   -0.0213153988
C       -0.5624615815    1.2408245058   -0.0212277412
C        1.6772223599   -0.0005767295    0.0007165543
N        2.3977967717   -1.1818185197    0.0215180462
N        2.3975757959    1.1807749600   -0.0183999028
H       -0.0410064953   -2.2163459730    0.0386576890
H       -2.5313231606   -2.1949294203    0.0380713651
H       -3.8003997046    0.0012921406   -0.0002604135
H       -2.5298403820    2.1966222526   -0.0379207101
H       -0.0394792159    2.2163993015   -0.0377702229
H        3.4492828052   -1.1941138315    0.0220711686
H        1.9043794483   -2.1071222808    0.0384267445
H        3.4490571792    1.1919795419   -0.0230197471
H        1.9045185199    2.1061818563   -0.0399571923
18   
Dihedral (15,) Energy -376.541677399
C        0.1685427184    0.0023419897    0.0161869463
C       -0.5567976134   -1.2314426836    0.1649521305
C       -1.9736848773   -1.2253558798    0.1625326041
C       -2.6845743606    0.0004802094   -0.0011705538
C       -1.9729836768    1.2261398629   -0.1623903339
C       -0.5560593160    1.2334813796   -0.1563369063
C        1.6756098982    0.0010953200   -0.0037768247
N        2.3857803776   -1.1721237989   -0.1898850849
N        2.3912819270    1.1670651802    0.2025587684
H       -0.0240933363   -2.1885504662    0.3260065973
H       -2.5265592056   -2.1760859158    0.2924792105
H       -3.7932396107    0.0001736801   -0.0055399957
H       -2.5254705918    2.1757142374   -0.3019544713
H       -0.0226910887    2.1899462222   -0.3193843767
H        3.4376074625   -1.1943976534   -0.1919635734
H        1.8845568647   -2.0518648959   -0.4670277373
H        3.4425921094    1.1916618987    0.1758340286
H        1.8926452110    2.0529019465    0.4640414437
18   
Dihedral (30,) Energy -376.542157703
C        0.1673658997   -0.0006397721   -0.0022600312
C       -0.5512696914   -1.2182127689    0.2561799258
C       -1.9687424806   -1.2087236502    0.2612875222
C       -2.6772440183    0.0016482345    0.0005893704
C       -1.9672380777    1.2110885575   -0.2605874839
C       -0.5497791131    1.2184990384   -0.2570923057
C        1.6743070021   -0.0010948832    0.0011690214
N        2.3778361679   -1.1337445573   -0.3639775942
N        2.3776657499    1.1327159759    0.3633604573
H       -0.0076447333   -2.1538918101    0.4912880380
H       -2.5236016409   -2.1431066369    0.4746918549
H       -3.7858200727    0.0024910247    0.0012904538
H       -2.5209732797    2.1464945043   -0.4724365455
H       -0.0050753165    2.1535639499   -0.4921889840
H        3.4288124184   -1.1823637632   -0.3366435876
H        1.8625993646   -1.9648137220   -0.7478719330
H        3.4289348830    1.1774619552    0.3401146375
H        1.8635480256    1.9633278085    0.7498260758
18   
Dihedral (45,) Energy -376.541143564
C        0.1627258288   -0.0138714459   -0.0251668854
C       -0.5545355808   -1.2030430511    0.3382537567
C       -1.9726691989   -1.1829401253    0.3525495301
C       -2.6762878459    0.0076816944    0.0044125019
C       -1.9623999566    1.1909733313   -0.3489220649
C       -0.5442739321    1.1922471287   -0.3505886897
C        1.6725837061   -0.0128274018    0.0060039285
N        2.3801010276   -1.0720615711   -0.5277054702
N        2.3578483846    1.0739271349    0.5129244496
H       -0.0081206276   -2.1203569245    0.6323780830
H       -2.5313547465   -2.0941932350    0.6422445697
H       -3.7846828537    0.0148139527    0.0120580403
H       -2.5129425471    2.1120187402   -0.6229499906
H        0.0102044013    2.1053732363   -0.6424907325
H        3.4295630369   -1.1423580728   -0.4752657096
H        1.8586780013   -1.8669711104   -0.9763919980
H        3.4085067301    1.1434551463    0.4976202697
H        1.8232528376    1.8497450909    0.9790908850
18   
Dihedral (60,) Energy -376.538779644
C        0.1591957766   -0.0319489884   -0.0418160798
C       -0.5605355638   -1.1783385016    0.4297433408
C       -1.9793824764   -1.1471774673    0.4510297510
C       -2.6760156279    0.0152757995    0.0090417804
C       -1.9565607582    1.1603481498   -0.4430310333
C       -0.5376083356    1.1522950809   -0.4508327431
C        1.6749999142   -0.0262189444    0.0071129682
N        2.3929893697   -0.9819002423   -0.6822153976
N        2.3395211127    0.9916040154    0.6599868969
H       -0.0158261563   -2.0740846212    0.7865780514
H       -2.5418544155   -2.0272846158    0.8190698962
H       -3.7840539252    0.0315047188    0.0224454979
H       -2.5020402841    2.0615809555   -0.7846952573
H        0.0247085093    2.0379889935   -0.8052156913
H        3.4434685404   -1.0553986636   -0.6366106014
H        1.8746483022   -1.7263810849   -1.2150988989
H        3.3897740703    1.0782533672    0.6690079372
H        1.7854851465    1.6951572355    1.2118967523
18   
Dihedral (75,) Energy -376.536049173
C        0.1539387504   -0.0358503002   -0.0325876912
C       -0.5637591439   -1.1299351380    0.5465453888
C       -1.9836585605   -1.0954339779    0.5603428910
C       -2.6789283447    0.0177259533    0.0063250430
C       -1.9568313884    1.1107117219   -0.5542378563
C       -0.5367286610    1.1006933906   -0.5615980052
C        1.6791594342   -0.0287402187    0.0072718457
N        2.3968925773   -0.8492711870   -0.8356885262
N        2.3389460801    0.8601359744    0.8277325480
H       -0.0203152109   -1.9904195866    0.9827083982
H       -2.5466673076   -1.9371878899    1.0084488631
H       -3.7867204721    0.0362368499    0.0161562096
H       -2.4995278822    1.9762279795   -0.9817470082
H        0.0276001972    1.9498518463   -0.9933216406
H        3.4499464447   -0.9101040411   -0.8221930229
H        1.8778868944   -1.5097812726   -1.4702574530
H        3.3895187740    0.9481547954    0.8595539611
H        1.7772188637    1.4759305641    1.4705707032
18   
Dihedral (90,) Energy -376.534737691
C        0.1511714247   -0.0010613534    0.0034014297
C       -0.5563555897   -1.0346896194    0.6924152291
C       -1.9771736300   -1.0227905486    0.6803185062
C       -2.6799501591    0.0057351957   -0.0099767331
C       -1.9657315359    1.0309233540   -0.6934389425
C       -0.5448000786    1.0358069486   -0.6923874800
C        1.6824865423   -0.0055788890    0.0101579335
N        2.3710497572   -0.6707815019   -0.9791985766
N        2.3687163388    0.6576756581    1.0024754600
H       -0.0071177719   -1.8326636956    1.2283926474
H       -2.5341290821   -1.8190990268    1.2113771882
H       -3.7877657436    0.0084265613   -0.0151871521
H       -2.5137964223    1.8299481721   -1.2296398556
H        0.0133579379    1.8314848945   -1.2225355466
H        3.4243503314   -0.7119169175   -1.0272899234
H        1.8285392471   -1.1728915505   -1.7290754924
H        3.4220465271    0.6882519519    1.0577090108
H        1.8253314091    1.1618375439    1.7503657048
18   
Dihedral (105,) Energy -376.536063010
C        0.1516874952    0.0513273719    0.0377708900
C       -0.5499529343   -0.9117404933    0.8308628285
C       -1.9696070489   -0.9350615846    0.7935869975
C       -2.6797260586   -0.0108145536   -0.0256676031
C       -1.9731029570    0.9352071216   -0.8231646435
C       -0.5531869259    0.9622249302   -0.8110535178
C        1.6771753149    0.0272717313    0.0180018495
N        2.3426379397   -0.4659589706   -1.0833289063
N        2.3867786513    0.4166819253    1.1329155371
H        0.0060052209   -1.6325512120    1.4611537398
H       -2.5203562652   -1.6786827024    1.4019649396
H       -3.7873351357   -0.0311247306   -0.0464750263
H       -2.5280903861    1.6505336200   -1.4608292768
H       -0.0010579373    1.6942945362   -1.4317138228
H        3.3943123870   -0.4755549746   -1.1650612043
H        1.7847572783   -0.7755563091   -1.9206972161
H        3.4384113536    0.3670990419    1.1967248759
H        1.8647552042    0.7985013110    1.9633894368
18   
Dihedral (120,) Energy -376.538811914
C        0.1517158225    0.0593756066    0.0456840725
C       -0.5585108377   -0.8201917051    0.9274011160
C       -1.9768045108   -0.8500794506    0.8823326915
C       -2.6829253504   -0.0129948624   -0.0301512186
C       -1.9720157830    0.8493188145   -0.9156291446
C       -0.5533829412    0.8762528375   -0.8977082997
C        1.6677524370    0.0262470656    0.0272725069
N        2.3371165469   -0.2836087438   -1.1389888086
N        2.3778346184    0.2052349254    1.1965123150
H       -0.0066240743   -1.4803731441    1.6244487308
H       -2.5317097554   -1.5322278554    1.5555522272
H       -3.7906267965   -0.0369118033   -0.0555307434
H       -2.5243131621    1.4974784188   -1.6236302821
H        0.0013621540    1.5483252679   -1.5810830439
H        3.3880802730   -0.2703450798   -1.2186991724
H        1.7828269014   -0.4573386947   -2.0161684911
H        3.4262728168    0.1147976355    1.2524707487
H        1.8628472224    0.4717408079    2.0741740032
18   
Dihedral (135,) Energy -376.541154410
C        0.1520753572    0.0354374854    0.0309363832
C       -0.5660611177   -0.7548243839    0.9902676283
C       -1.9838779574   -0.7720418863    0.9546413422
C       -2.6876166570   -0.0062555924   -0.0212417164
C       -1.9727071878    0.7739696690   -0.9776529738
C       -0.5547085827    0.7878144583   -0.9665047402
C        1.6618212181    0.0117849337    0.0244677996
N        2.3525512681   -0.1036822722   -1.1659371323
N        2.3637426921    0.0420216295    1.2134673170
H       -0.0202986627   -1.3693401688    1.7325455120
H       -2.5426819641   -1.3893333180    1.6848072514
H       -3.7958442202   -0.0202479225   -0.0388757402
H       -2.5224313959    1.3710028787   -1.7311980041
H       -0.0002749056    1.4084558720   -1.6972717800
H        3.4034572379   -0.0628350943   -1.2216703220
H        1.8175285177   -0.1889649729   -2.0668358640
H        3.4119625537   -0.0466159388    1.2606778187
H        1.8448882818    0.1891233715    2.1157563808
18   
Dihedral (150,) Energy -376.542158905
C        0.1507853296    0.0000382289    0.0112427487
C       -0.5762909280   -0.7003065161    1.0342755428
C       -1.9936587196   -0.6983541455    1.0139738196
C       -2.6948238309    0.0035499105   -0.0110378570
C       -1.9759162599    0.7028697404   -1.0255401604
C       -0.5584431666    0.6999386962   -1.0245083627
C        1.6576763003   -0.0086299529    0.0188126530
N        2.3681167909    0.0797833076   -1.1638086801
N        2.3550761903   -0.1128689305    1.2079380290
H       -0.0395335767   -1.2746572527    1.8142167145
H       -2.5545361771   -1.2497352817    1.7936294051
H       -3.8033816571    0.0052500598   -0.0195291446
H       -2.5231854872    1.2551164999   -1.8141990494
H       -0.0080545936    1.2719896321   -1.7966370082
H        3.4195272180    0.1171174391   -1.1910574522
H        1.8578175552    0.0520614586   -2.0815550932
H        3.4055255181   -0.1652816821    1.2454946864
H        1.8368945872   -0.0742215863    2.1208701768
18   
Dihedral (165,) Energy -376.541674279
C        0.1549036549    0.0197501757   -0.0173354328
C       -0.5782072106   -0.3964314368   -1.1834547468
C       -1.9949636208   -0.4004283438   -1.1643819066
C       -2.6985558807   -0.0035545402    0.0113633817
C       -1.9788808106    0.4013511058    1.1744032656
C       -0.5619704060    0.4146240019    1.1661916776
C        1.6621917060    0.0046826838   -0.0214907657
N        2.3872020318    0.6758124749    0.9479220464
N        2.3641605134   -0.7112807377   -0.9746394151
H       -0.0525966063   -0.6772585288   -2.1166536941
H       -2.5541760136   -0.7091481401   -2.0690174807
H       -3.8071603601   -0.0112799191    0.0216771321
H       -2.5247032880    0.6989903058    2.0908727100
H       -0.0223147086    0.6991239261    2.0900470210
H        3.4389357439    0.6647872441    0.9717062883
H        1.8983838080    1.3220241414    1.6152887090
H        3.4156282527   -0.7214797327   -1.0043997768
H        1.8536670382   -1.3232407986   -1.6576946954
18   
Dihedral (180,) Energy -376.540862415
C        0.1546858822   -0.0039089682   -0.0072894961
C       -0.5841630722   -0.5339481193   -1.1236981100
C       -2.0007353336   -0.5273639227   -1.1101947679
C       -2.7053678671    0.0046616248    0.0097198690
C       -1.9843915795    0.5324262643    1.1212082336
C       -0.5677445942    0.5305808305    1.1177248149
C        1.6642591472   -0.0080685509   -0.0163674786
N        2.3924048319    0.4966629945    1.0467312029
N        2.3766485421   -0.5181202292   -1.0875110582
H       -0.0681445714   -0.9544852456   -2.0082420856
H       -2.5580508365   -0.9378556359   -1.9746248223
H       -3.8140357984    0.0079557557    0.0162813908
H       -2.5289279042    0.9461757778    1.9922063132
H       -0.0387439292    0.9477952903    1.9961460039
H        3.4439441332    0.4992174604    1.0526321144
H        1.9045748539    0.8935297688    1.8860461125
H        3.4280178100   -0.5217108132   -1.1066453375
H        1.8771782468   -0.9085483703   -1.9230004968
