18   
Iteration 0 Energy -376.53604912
C        0.1548164000   -0.0339092000    0.0340636000
C       -0.5617996000   -1.1481402000   -0.5066957000
C       -1.9817379000   -1.1157360000   -0.5214847000
C       -2.6779224000    0.0153179000   -0.0062001000
C       -1.9570211000    1.1278961000    0.5160827000
C       -0.5369113000    1.1195766000    0.5235234000
C        1.6800235000   -0.0266618000   -0.0061891000
N        2.3988983000   -0.8166441000    0.8645246000
N        2.3386761000    0.8343019000   -0.8567394000
H       -0.0174875000   -2.0226356000   -0.9128716000
H       -2.5439412000   -1.9730911000   -0.9400579000
H       -3.7857322000    0.0323383000   -0.0164691000
H       -2.5005979000    2.0071169000    0.9134509000
H        0.0266280000    1.9837386000    0.9254771000
H        3.4519984000   -0.8771374000    0.8526575000
H        1.8807106000   -1.4557659000    1.5212823000
H        3.3892002000    0.9216480000   -0.8917872000
H        1.7763720000    1.4267778000   -1.5206471000
18   
Iteration 1 Energy -376.53692300
C        0.1536186973   -0.0177551852    0.0222036870
C       -0.5562826299   -1.1539556970   -0.4802613513
C       -1.9763988598   -1.1294200842   -0.4911065919
C       -2.6775457345    0.0107956150   -0.0033589349
C       -1.9619326155    1.1395115101    0.4909327475
C       -0.5418013553    1.1406105063    0.4945205827
C        1.6791456697   -0.0119008450   -0.0009059942
N        2.3887003949   -0.8551162529    0.8265024630
N        2.3480936098    0.8683351034   -0.8232467025
H       -0.0076654673   -2.0371441475   -0.8610753350
H       -2.5351451532   -2.0011769938   -0.8837411096
H       -3.7854717958    0.0209022298   -0.0102486340
H       -2.5099535561    2.0235954284    0.8710096854
H        0.0180718548    2.0152509554    0.8785683457
H        3.4408235420   -0.9305382778    0.8138546975
H        1.8611221601   -1.5193975184    1.4499125415
H        3.3996116586    0.9439610836   -0.8557816023
H        1.7929663063    1.4899647426   -1.4662057622
18   
Iteration 2 Energy -376.53754080
C        0.1556724076   -0.0137731118    0.0165312206
C       -0.5554535066   -1.1615025877   -0.4576395332
C       -1.9755717699   -1.1402118098   -0.4666983158
C       -2.6779418466    0.0085165305   -0.0007125210
C       -1.9635869887    1.1484900829    0.4692118120
C       -0.5434777385    1.1506739417    0.4684764156
C        1.6800096591   -0.0092683238   -0.0039611658
N        2.3829549906   -0.8853062376    0.7946093387
N        2.3537331959    0.8958494633   -0.7951604097
H       -0.0065288500   -2.0513567283   -0.8220832455
H       -2.5334271241   -2.0209193469   -0.8402277316
H       -3.7859324430    0.0161947759   -0.0051624207
H       -2.5121559623    2.0387654051    0.8337815582
H        0.0153305685    2.0336768923    0.8344434698
H        3.4345567991   -0.9651071427    0.7806281342
H        1.8511750097   -1.5639263583    1.3985171045
H        3.4053487858    0.9711923927   -0.8193085273
H        1.8024455050    1.5433475529   -1.4152903909
18   
Iteration 3 Energy -376.53850485
C        0.1548536740   -0.0087736245    0.0114132609
C       -0.5521728692   -1.1755206868   -0.4220626007
C       -1.9719960831   -1.1562674724   -0.4300173214
C       -2.6749425997    0.0063629092    0.0005828420
C       -1.9615992317    1.1622572083    0.4329783341
C       -0.5418348174    1.1698782427    0.4299769933
C        1.6767396369   -0.0073140149   -0.0043091493
N        2.3757559236   -0.9299587608    0.7440725154
N        2.3542084942    0.9365687829   -0.7458290951
H       -0.0013208188   -2.0746210595   -0.7601774404
H       -2.5295236945   -2.0490146610   -0.7743078403
H       -3.7830301569    0.0121056913   -0.0016830944
H       -2.5121992153    2.0614323066    0.7716417370
H        0.0164861526    2.0642735255    0.7682819876
H        3.4268614719   -1.0111626989    0.7207653327
H        1.8431847231   -1.6349848291    1.3158804110
H        3.4056156350    1.0141252320   -0.7591125995
H        1.8058336845    1.6181907575   -1.3306596042
18   
Iteration 4 Energy -376.53868150
C        0.1557828227   -0.0199235562    0.0196347318
C       -0.5562459620   -1.1870060935   -0.4074875323
C       -1.9755155011   -1.1617809719   -0.4182292214
C       -2.6738589802    0.0087077511   -0.0005130038
C       -1.9547592490    1.1673514639    0.4158339889
C       -0.5353818025    1.1711270569    0.4137655068
C        1.6739892398   -0.0213841737   -0.0140926770
N        2.3818750517   -0.9456796858    0.7245355445
N        2.3447566515    0.9512906296   -0.7243393057
H       -0.0088477765   -2.0894073323   -0.7426962589
H       -2.5366567367   -2.0547996943   -0.7558872463
H       -3.7820096248    0.0195643142   -0.0038518097
H       -2.5022722933    2.0732474181    0.7412394018
H        0.0262069216    2.0692182594    0.7369186472
H        3.4334091060   -1.0140443585    0.6942641091
H        1.8588927790   -1.6562758743    1.2978529439
H        3.3946721541    1.0442273512   -0.7242309201
H        1.7919653084    1.6461456936   -1.2886278125
18   
Iteration 5 Energy -376.53874340
C        0.1567143514   -0.0266560867    0.0311000253
C       -0.5573808157   -1.1927682209   -0.3972832613
C       -1.9763321704   -1.1633392849   -0.4126561833
C       -2.6723358474    0.0118497225   -0.0037750166
C       -1.9541337770    1.1731184135    0.4072364522
C       -0.5350580799    1.1701794963    0.4083204822
C        1.6732366309   -0.0255828303   -0.0134940998
N        2.3909654837   -0.9519028332    0.7142376214
N        2.3372942854    0.9600686918   -0.7130080922
H       -0.0111212092   -2.0973875156   -0.7285234990
H       -2.5393628755   -2.0558172036   -0.7486049128
H       -3.7804481911    0.0251263191   -0.0114896940
H       -2.5004704901    2.0829800352    0.7236452744
H        0.0279379570    2.0689735473    0.7269704332
H        3.4423073051   -1.0197047629    0.6799303864
H        1.8727295881   -1.6701307271    1.2820468598
H        3.3862876821    1.0617976663   -0.7102547137
H        1.7799117049    1.6538424741   -1.2739200865
18   
Iteration 6 Energy -376.53873915
C        0.1622372245   -0.0300295466    0.0470764562
C       -0.5613804496   -1.1909358095   -0.3823540275
C       -1.9803421221   -1.1638449354   -0.4055624307
C       -2.6803570581    0.0126613974   -0.0084962073
C       -1.9545094116    1.1714945441    0.3963007083
C       -0.5354481586    1.1698008802    0.4053072854
C        1.6772582011   -0.0249597269   -0.0113481508
N        2.4004249986   -0.9574571010    0.7041775467
N        2.3370879373    0.9707973301   -0.7021393165
H       -0.0164238904   -2.0986115509   -0.7071607148
H       -2.5410259116   -2.0581001309   -0.7407174101
H       -3.7884896035    0.0292566776   -0.0217182880
H       -2.4997069853    2.0855407911    0.7022574926
H        0.0244999959    2.0707592269    0.7232068420
H        3.4510660064   -1.0250971801    0.6557130757
H        1.8879661862   -1.6856664064    1.2644126695
H        3.3859513387    1.0727870207   -0.6999438315
H        1.7784595894    1.6629244708   -1.2636535254
18   
Iteration 7 Energy -376.53877545
C        0.1600493859   -0.0298209619    0.0419606209
C       -0.5589662536   -1.1931070015   -0.3879398821
C       -1.9777731587   -1.1634285013   -0.4085978211
C       -2.6750759883    0.0135513900   -0.0079205676
C       -1.9567952941    1.1751622202    0.4017093405
C       -0.5378266416    1.1678465597    0.4079562577
C        1.6757436848   -0.0233170220   -0.0109382729
N        2.3977209704   -0.9530518438    0.7088722115
N        2.3370252337    0.9682012157   -0.7059182381
H       -0.0136856381   -2.1004635393   -0.7132171474
H       -2.5400636416   -2.0564690245   -0.7443562823
H       -3.7831447512    0.0281180609   -0.0208120745
H       -2.5027062204    2.0877551799    0.7110163225
H        0.0238418532    2.0663924557    0.7294950390
H        3.4484059212   -1.0222007948    0.6619485060
H        1.8840076853   -1.6792695486    1.2706674660
H        3.3863166850    1.0661422607   -0.7077338296
H        1.7793308302    1.6590557785   -1.2699805538
18   
Iteration 8 Energy -376.53877289
C        0.1592287810   -0.0279488249    0.0388574903
C       -0.5588786409   -1.1916618652   -0.3908532565
C       -1.9777481887   -1.1628259774   -0.4103464651
C       -2.6758610608    0.0128992896   -0.0076501658
C       -1.9561958368    1.1731898590    0.4032370254
C       -0.5371870850    1.1691248130    0.4091478007
C        1.6752051701   -0.0229838637   -0.0105056175
N        2.3990862933   -0.9500837813    0.7108495680
N        2.3368844817    0.9666717422   -0.7072842019
H       -0.0133264061   -2.0985404048   -0.7170254257
H       -2.5394835488   -2.0560671218   -0.7464552656
H       -3.7839545014    0.0272265291   -0.0194340189
H       -2.5024737980    2.0847355325    0.7148400487
H        0.0241941445    2.0673781378    0.7321467052
H        3.4496616192   -1.0256326377    0.6699948055
H        1.8822338461   -1.6737226842    1.2729734954
H        3.3862802933    1.0635691509   -0.7135415523
H        1.7785516701    1.6563007074   -1.2722480579
18   
Iteration 9 Energy -376.53878057
C        0.1599735175   -0.0283451202    0.0401882772
C       -0.5587619377   -1.1918127298   -0.3892698047
C       -1.9776519991   -1.1633379008   -0.4092049164
C       -2.6756652830    0.0128165652   -0.0075140513
C       -1.9564828193    1.1737419338    0.4025066718
C       -0.5374957677    1.1687989814    0.4083985807
C        1.6756923599   -0.0224370686   -0.0109490521
N        2.3977329058   -0.9511454499    0.7102878291
N        2.3375040549    0.9686373251   -0.7059570807
H       -0.0132156017   -2.0988334830   -0.7150264114
H       -2.5393201782   -2.0567748295   -0.7449274340
H       -3.7837540617    0.0270898170   -0.0195950412
H       -2.5027199294    2.0856902355    0.7130638277
H        0.0237908117    2.0673544167    0.7306489344
H        3.4482898984   -1.0239797702    0.6653022780
H        1.8822522889   -1.6768571654    1.2710721917
H        3.3869984064    1.0642550602   -0.7111642037
H        1.7801134368    1.6582226156   -1.2719073252
18   
Iteration 10 Energy -376.53878118
C        0.1600668755   -0.0284196741    0.0403366927
C       -0.5586029464   -1.1919454946   -0.3890580461
C       -1.9774961993   -1.1630865681   -0.4089581837
C       -2.6759178348    0.0129197879   -0.0075574669
C       -1.9567151619    1.1738824165    0.4023084031
C       -0.5377338525    1.1686730507    0.4082211457
C        1.6757798105   -0.0223012996   -0.0107261191
N        2.3982498747   -0.9507125980    0.7104675958
N        2.3373856617    0.9695920822   -0.7047618923
H       -0.0131633217   -2.0990616456   -0.7147421128
H       -2.5391248025   -2.0565678634   -0.7446104274
H       -3.7840109248    0.0270789441   -0.0197623666
H       -2.5028879288    2.0859368616    0.7126684876
H        0.0235494975    2.0672617640    0.7303694179
H        3.4487747188   -1.0232078233    0.6639638949
H        1.8833731740   -1.6776021967    1.2703103670
H        3.3869410467    1.0644767441   -0.7112283524
H        1.7799766309    1.6581845612   -1.2718968833
