18   
Iteration 0 Energy -376.53473763
C        0.1521015000   -0.0004180000   -0.0030196000
C       -0.5544645000   -1.0579708000   -0.6557726000
C       -1.9752925000   -1.0472472000   -0.6439435000
C       -2.6789127000    0.0038662000    0.0105412000
C       -1.9657194000    1.0528385000    0.6580511000
C       -0.5447953000    1.0591950000    0.6566316000
C        1.6834145000   -0.0035640000   -0.0099756000
N        2.3725793000   -0.6335778000    1.0017463000
N        2.3689033000    0.6256325000   -1.0247544000
H       -0.0044297000   -1.8734060000   -1.1639271000
H       -2.5314946000   -1.8620096000   -1.1470710000
H       -3.7867290000    0.0056175000    0.0158554000
H       -2.5145763000    1.8693452000    1.1663837000
H        0.0126089000    1.8733029000    1.1588577000
H        3.4259177000   -0.6719727000    1.0512201000
H        1.8305458000   -1.1099147000    1.7685919000
H        3.4221760000    0.6555692000   -1.0814244000
H        1.8247960000    1.1030385000   -1.7894835000
18   
Iteration 1 Energy -376.53470690
C        0.1522833546   -0.0210276094    0.0106251546
C       -0.5595974706   -1.0506908315   -0.6797138584
C       -1.9803908980   -1.0286961420   -0.6739794879
C       -2.6801282759    0.0098492165    0.0042910486
C       -1.9612092936    1.0373160792    0.6793218947
C       -0.5402443996    1.0323492035    0.6846549775
C        1.6836962318   -0.0222715103   -0.0093775570
N        2.3860345430   -0.5876288543    1.0310084206
N        2.3576141128    0.5826455657   -1.0462030497
H       -0.0136395178   -1.8546935845   -1.2099939907
H       -2.5402003123   -1.8246720654   -1.2025083190
H       -3.7879187831    0.0203687235    0.0039792217
H       -2.5058634597    1.8471112773    1.2026794934
H        0.0208484715    1.8323476880    1.2050968306
H        3.4401500463   -0.6042088772    1.0771469670
H        1.8549361512   -1.0327494538    1.8238611647
H        3.4101256929    0.6280136111   -1.1068339947
H        1.8043204749    1.0247918906   -1.8254100671
18   
Iteration 2 Energy -376.53474110
C        0.1522695515   -0.0314852548    0.0185915587
C       -0.5617574944   -1.0429565457   -0.6958771113
C       -1.9825164159   -1.0153477168   -0.6940859125
C       -2.6809639971    0.0137124057   -0.0002075918
C       -1.9595410530    1.0265041947    0.6940565729
C       -0.5386068366    1.0152968556    0.7044508486
C        1.6838340112   -0.0307969856   -0.0060984261
N        2.3947035719   -0.5556134587    1.0495664122
N        2.3510745085    0.5515220960   -1.0598086569
H       -0.0173640512   -1.8390082291   -1.2395788914
H       -2.5436068656   -1.7992154112   -1.2390739986
H       -3.7886966210    0.0290537225   -0.0043477205
H       -2.5024163982    1.8305630546    1.2279968937
H        0.0238570434    1.8050455722    1.2388661593
H        3.4492008494   -0.5584362799    1.0911085520
H        1.8712560803   -0.9813114309    1.8580653631
H        3.4030289521    0.6029475262   -1.1252389412
H        1.7923833619    0.9673914067   -1.8495654947
18   
Iteration 3 Energy -376.53525198
C        0.1517547637   -0.0306007078    0.0199618085
C       -0.5594573367   -1.0165854671   -0.7326111799
C       -1.9800274290   -0.9940647542   -0.7308382993
C       -2.6728325823    0.0128241246    0.0003913884
C       -1.9567360234    1.0025634741    0.7327711774
C       -0.5360945200    0.9908466389    0.7464572548
C        1.6822127295   -0.0231017701   -0.0078163313
N        2.3862633643   -0.4855517766    1.0813914233
N        2.3492065131    0.4903153312   -1.0978549840
H       -0.0126851339   -1.7932004682   -1.3014643279
H       -2.5417111019   -1.7587696001   -1.3019418608
H       -3.7805058284    0.0286459312   -0.0036106678
H       -2.5019857570    1.7871291294    1.2927400174
H        0.0266434382    1.7595292902    1.3105694104
H        3.4398476102   -0.4848950559    1.1377660999
H        1.8553308107   -0.8727902886    1.9040701328
H        3.4015333318    0.5254507658   -1.1666142187
H        1.7928157732    0.8520909108   -1.9153170218
18   
Iteration 4 Energy -376.53558360
C        0.1560744369   -0.0074545410    0.0042411430
C       -0.5536924225   -0.9910606787   -0.7522090610
C       -1.9746282510   -0.9731234090   -0.7367404975
C       -2.6912537299    0.0103430822    0.0038206094
C       -1.9695141325    0.9876486526    0.7469117434
C       -0.5483778362    0.9840641948    0.7563702174
C        1.6860067201   -0.0027663979   -0.0005454097
N        2.3882921659   -0.4588871323    1.0925160804
N        2.3642220610    0.4561688101   -1.1073685157
H       -0.0067318708   -1.7612401429   -1.3297119267
H       -2.5294081833   -1.7382022533   -1.3136728131
H       -3.7993099596    0.0149229803    0.0024573279
H       -2.5151661338    1.7593946040    1.3238675108
H        0.0073509208    1.7452680342    1.3372087999
H        3.4422807451   -0.4630146602    1.1406177920
H        1.8584269797   -0.8320250627    1.9222723141
H        3.4163482169    0.4600173366   -1.1855797896
H        1.8129340946    0.7997691836   -1.9358738812
18   
Iteration 5 Energy -376.53587615
C        0.1545041453    0.0542080151   -0.0311202105
C       -0.5444327620   -0.9349713199   -0.7926758732
C       -1.9641245965   -0.9641963166   -0.7650168402
C       -2.6728648842   -0.0075989727    0.0175726288
C       -1.9765024434    0.9657198132    0.7906653391
C       -0.5563359580    0.9900573134    0.7854278353
C        1.6805361971    0.0455521069   -0.0048001686
N        2.3536826788   -0.4045618581    1.1093564352
N        2.3847842827    0.3880712153   -1.1375436418
H        0.0161190491   -1.6821351976   -1.3870304936
H       -2.5114810407   -1.7301102396   -1.3484890720
H       -3.7804847251   -0.0267784446    0.0322017785
H       -2.5359093362    1.7017081034    1.4005077982
H       -0.0074780317    1.7360251564    1.3921197903
H        3.4065030377   -0.4343854399    1.1672785603
H        1.8045203817   -0.7300423321    1.9463426195
H        3.4340432949    0.3142356476   -1.2158591563
H        1.8544376459    0.7083299585   -1.9885202330
18   
Iteration 6 Energy -376.53598047
C        0.1530408977    0.0523149902   -0.0399797406
C       -0.5400159983   -0.9438031866   -0.7984707465
C       -1.9593718227   -0.9647571903   -0.7555628641
C       -2.6733875978   -0.0125220565    0.0276019595
C       -1.9686851617    0.9623255695    0.7912105268
C       -0.5489646749    0.9931468520    0.7788760613
C        1.6779260031    0.0375506466   -0.0185390313
N        2.3366776961   -0.4132008846    1.1046800120
N        2.3882848951    0.3944233671   -1.1442786596
H        0.0175370651   -1.6889888115   -1.3985505357
H       -2.5094234557   -1.7317224861   -1.3347549112
H       -3.7809940657   -0.0349341791    0.0486024419
H       -2.5252896552    1.6986580207    1.4029578703
H        0.0030636130    1.7447597004    1.3759509505
H        3.3873247608   -0.4450624006    1.1907972875
H        1.7712655285   -0.7197624735    1.9378485489
H        3.4389067456    0.3256823147   -1.2071668418
H        1.8674993393    0.7353540440   -1.9931938651
18   
Iteration 7 Energy -376.53602121
C        0.1568704718    0.0450101593   -0.0379033938
C       -0.5488682787   -0.9464530263   -0.7907219662
C       -1.9688633721   -0.9671651871   -0.7533454956
C       -2.6812158182   -0.0116080549    0.0270319187
C       -1.9728699089    0.9649781776    0.7851471485
C       -0.5527499892    0.9892892667    0.7694378281
C        1.6831179082    0.0227787346   -0.0183133048
N        2.3490974137   -0.4267416378    1.1011380235
N        2.3927762371    0.3981041000   -1.1382786845
H        0.0053262256   -1.6924451399   -1.3925133209
H       -2.5190102009   -1.7342742893   -1.3323855799
H       -3.7888519372   -0.0309606504    0.0479941688
H       -2.5264894316    1.7061535117    1.3938532104
H       -0.0008357152    1.7460478007    1.3597566640
H        3.4004682885   -0.4463686807    1.1834362725
H        1.7893285763   -0.7261627323    1.9407681604
H        3.4444061893    0.3469589771   -1.2016205038
H        1.8694527295    0.7531064674   -1.9797798876
18   
Iteration 8 Energy -376.53605174
C        0.1532726408    0.0500307033   -0.0375491635
C       -0.5461292792   -0.9426483013   -0.7950941250
C       -1.9658423425   -0.9650935139   -0.7578739785
C       -2.6775188396   -0.0117579177    0.0258491479
C       -1.9727039078    0.9639560884    0.7884020560
C       -0.5528536760    0.9915467128    0.7762032661
C        1.6789703459    0.0281712024   -0.0149135251
N        2.3464096285   -0.4222759164    1.1030116316
N        2.3888348513    0.3885292983   -1.1391314609
H        0.0107927730   -1.6858514639   -1.3979539004
H       -2.5155692287   -1.7310313687   -1.3388487864
H       -3.7851212597   -0.0323434052    0.0462754414
H       -2.5288730626    1.7019877213    1.3985818428
H       -0.0014703095    1.7463585616    1.3696926719
H        3.3986301936   -0.4376072953    1.1758978415
H        1.7914039541   -0.7201787739    1.9464679918
H        3.4400878461    0.3331317383   -1.2048663857
H        1.8650388431    0.7361655856   -1.9833889017
18   
Iteration 9 Energy -376.53605701
C        0.1539997224    0.0533626917   -0.0402716079
C       -0.5449389242   -0.9392951910   -0.7982968414
C       -1.9645159868   -0.9637839035   -0.7584980355
C       -2.6766188035   -0.0132622947    0.0283396945
C       -1.9729184429    0.9618999218    0.7925710395
C       -0.5530915029    0.9903476273    0.7778924082
C        1.6794239009    0.0332624235   -0.0185305180
N        2.3419901817   -0.4187571877    1.1018963446
N        2.3904408839    0.3845306540   -1.1451451615
H        0.0121919579   -1.6807380057   -1.4031280909
H       -2.5140557029   -1.7295214224   -1.3399172410
H       -3.7841513866   -0.0358696616    0.0503010292
H       -2.5291622293    1.6976007025    1.4055186117
H       -0.0019221799    1.7440597432    1.3729430638
H        3.3932553490   -0.4368628241    1.1862338603
H        1.7804253750   -0.7105000960    1.9430862502
H        3.4417403720    0.3255197153   -1.2062980288
H        1.8697681202    0.7301630873   -1.9921626726
18   
Iteration 10 Energy -376.53606138
C        0.1537838003    0.0522057300   -0.0395332846
C       -0.5464214847   -0.9396867198   -0.7975083159
C       -1.9660471769   -0.9640424662   -0.7587377441
C       -2.6779902573   -0.0130409089    0.0276091809
C       -1.9725184112    0.9615157806    0.7910492037
C       -0.5526521111    0.9905602836    0.7774963437
C        1.6792856742    0.0308152955   -0.0184156089
N        2.3433174500   -0.4217829986    1.1010061510
N        2.3896708682    0.3839831992   -1.1448771584
H        0.0104504069   -1.6813150730   -1.4023248440
H       -2.5155539563   -1.7296866820   -1.3403192625
H       -3.7855566902   -0.0346555800    0.0495625380
H       -2.5284983431    1.6977529137    1.4035496691
H       -0.0015872656    1.7447719304    1.3720363154
H        3.3947839028   -0.4358557739    1.1838535788
H        1.7834851799   -0.7100789282    1.9445618069
H        3.4411053263    0.3284457468   -1.2068726914
H        1.8681501018    0.7330057017   -1.9899711603
18   
Iteration 11 Energy -376.53606041
C        0.1526874538    0.0490482859   -0.0394480731
C       -0.5474361835   -0.9422145186   -0.7982886038
C       -1.9670736688   -0.9633876638   -0.7588812216
C       -2.6784704604   -0.0114619463    0.0269919251
C       -1.9737091798    0.9633340178    0.7906862695
C       -0.5537997767    0.9890586351    0.7757292179
C        1.6782908056    0.0270664204   -0.0181477850
N        2.3450521772   -0.4259659507    1.0995448495
N        2.3877390007    0.3826721821   -1.1443907478
H        0.0086190447   -1.6844754598   -1.4031112454
H       -2.5177271165   -1.7282392826   -1.3404062287
H       -3.7860569470   -0.0323157365    0.0481584774
H       -2.5288639876    1.7005868661    1.4027566227
H       -0.0017236119    1.7431638878    1.3694227636
H        3.3968920619   -0.4317809071    1.1793287641
H        1.7885775413   -0.7095523898    1.9469831928
H        3.4394474103    0.3331828962   -1.2069658648
H        1.8649689490    0.7357995473   -1.9869992838
