18   
Iteration 0 Energy -376.54167740
C        0.1685427000    0.0023420000    0.0161869000
C       -0.5567976000   -1.2314427000    0.1649521000
C       -1.9736849000   -1.2253559000    0.1625326000
C       -2.6845744000    0.0004802000   -0.0011706000
C       -1.9729837000    1.2261399000   -0.1623903000
C       -0.5560593000    1.2334814000   -0.1563369000
C        1.6756099000    0.0010953000   -0.0037768000
N        2.3857804000   -1.1721238000   -0.1898851000
N        2.3912819000    1.1670652000    0.2025588000
H       -0.0240933000   -2.1885505000    0.3260066000
H       -2.5265592000   -2.1760859000    0.2924792000
H       -3.7932396000    0.0001737000   -0.0055400000
H       -2.5254706000    2.1757142000   -0.3019545000
H       -0.0226911000    2.1899462000   -0.3193844000
H        3.4376075000   -1.1943977000   -0.1919636000
H        1.8845569000   -2.0518649000   -0.4670277000
H        3.4425921000    1.1916619000    0.1758340000
H        1.8926452000    2.0529019000    0.4640414000
18   
Iteration 1 Energy -376.54194218
C        0.1680987324   -0.0039541756    0.0048392931
C       -0.5587645755   -1.2312148695    0.1941051046
C       -1.9756172237   -1.2195086999    0.1922057186
C       -2.6845947966    0.0029534089   -0.0025936886
C       -1.9708051559    1.2232169839   -0.1921680309
C       -0.5538673901    1.2259535254   -0.1870900136
C        1.6753075119   -0.0046033033    0.0081192523
N        2.3911715131   -1.1629190095   -0.2393784436
N        2.3862756323    1.1568390737    0.2525464955
H       -0.0284534660   -2.1843992045    0.3839754918
H       -2.5310235992   -2.1647045390    0.3488051707
H       -3.7932678926    0.0047581652   -0.0056155644
H       -2.5209631797    2.1711063525   -0.3511005302
H       -0.0179979014    2.1778650789   -0.3675559746
H        3.4431318624   -1.1789274850   -0.2424691212
H        1.8945773898   -2.0296907148   -0.5620540962
H        3.4374710529    1.1874967471    0.2272085578
H        1.8836189212    2.0312037061    0.5433143845
18   
Iteration 2 Energy -376.54205384
C        0.1683920417    0.0033368968   -0.0032033320
C       -0.5501131121   -1.2232534164    0.2151552691
C       -1.9672037975   -1.2206025212    0.2170146596
C       -2.6774400169   -0.0030356457   -0.0021285308
C       -1.9684811734    1.2160438028   -0.2180787449
C       -0.5514577124    1.2303839205   -0.2150415194
C        1.6742509654    0.0041317649    0.0073576236
N        2.3720220036   -1.1553201024   -0.2819377583
N        2.3898377258    1.1525486277    0.2954232101
H       -0.0100161490   -2.1674839212    0.4223361350
H       -2.5189407288   -2.1640684497    0.3957047104
H       -3.7860834065   -0.0040239992   -0.0030925744
H       -2.5243497482    2.1572972197   -0.3953159767
H       -0.0167539123    2.1788516341   -0.4166026940
H        3.4234197903   -1.1960008709   -0.2809788859
H        1.8577694487   -2.0024662049   -0.6293941396
H        3.4413371518    1.1807860682    0.2737281200
H        1.8893794941    2.0147424927    0.6248315334
18   
Iteration 3 Energy -376.54211659
C        0.1686728008   -0.0034831829   -0.0128354588
C       -0.5508025633   -1.2198592928    0.2485208677
C       -1.9683248216   -1.2079637915    0.2544644219
C       -2.6786715552    0.0029429848    0.0003007067
C       -1.9680782283    1.2135283387   -0.2546617693
C       -0.5505660151    1.2175955778   -0.2529315092
C        1.6744131140   -0.0033887192    0.0038765896
N        2.3838057205   -1.1382444161   -0.3464263102
N        2.3779382092    1.1341626349    0.3536923617
H       -0.0098853304   -2.1571077607    0.4837247886
H       -2.5229882498   -2.1427460820    0.4664585439
H       -3.7872900866    0.0039626793    0.0037654079
H       -2.5205926596    2.1514422311   -0.4584957622
H       -0.0085547440    2.1550800530   -0.4841791477
H        3.4354314203   -1.1768388417   -0.3337768492
H        1.8748653178   -1.9697109169   -0.7376618447
H        3.4293895044    1.1741306417    0.3368804388
H        1.8667220778    1.9685935975    0.7354730695
18   
Iteration 4 Energy -376.54213992
C        0.1676661386   -0.0015011703   -0.0089004720
C       -0.5529638895   -1.2175525947    0.2525429049
C       -1.9704634633   -1.2092744368    0.2603500622
C       -2.6776931303    0.0022953031    0.0021665714
C       -1.9650410904    1.2104920517   -0.2584205332
C       -0.5475705894    1.2197900867   -0.2578696983
C        1.6741110314   -0.0036631272    0.0002439670
N        2.3819228759   -1.1368220507   -0.3563433480
N        2.3768088543    1.1313570788    0.3597777121
H       -0.0098608641   -2.1536966634    0.4868102642
H       -2.5252025308   -2.1434816182    0.4749092649
H       -3.7862847049    0.0051554267    0.0049978537
H       -2.5184889927    2.1467709861   -0.4669491181
H       -0.0034063266    2.1549838135   -0.4939571787
H        3.4336177960   -1.1711444839   -0.3345450699
H        1.8746682285   -1.9678178217   -0.7510821252
H        3.4282805300    1.1748570917    0.3443423826
H        1.8625024325    1.9609936221    0.7482213853
18   
Iteration 5 Energy -376.54214731
C        0.1680873861   -0.0007955248   -0.0032112107
C       -0.5485702951   -1.2192428329    0.2570601569
C       -1.9660031759   -1.2076990454    0.2634906504
C       -2.6753060930    0.0020349395    0.0020381606
C       -1.9665557898    1.2113649260   -0.2627084509
C       -0.5491272851    1.2178248278   -0.2603203584
C        1.6749910102    0.0000089740    0.0001758782
N        2.3756940409   -1.1346067390   -0.3641029249
N        2.3780536553    1.1332146590    0.3656067330
H       -0.0037730996   -2.1545916611    0.4908180540
H       -2.5210621152   -2.1414984968    0.4788511507
H       -3.7838750965    0.0023574351    0.0039068935
H       -2.5206157095    2.1463446242   -0.4756467356
H       -0.0032781590    2.1514054488   -0.4987714566
H        3.4268601023   -1.1817741862   -0.3399570000
H        1.8600175552   -1.9610811369   -0.7575400910
H        3.4295369704    1.1775869862    0.3482967181
H        1.8630445459    1.9603835214    0.7584594308
18   
Iteration 6 Energy -376.54215340
C        0.1686525910   -0.0003561083   -0.0030905857
C       -0.5509110089   -1.2171625407    0.2561260265
C       -1.9683939075   -1.2083395894    0.2618193949
C       -2.6778599144    0.0014785320    0.0011346983
C       -1.9668463289    1.2101420328   -0.2609379193
C       -0.5493467993    1.2182469375   -0.2580623407
C        1.6756291150   -0.0008793448    0.0014238577
N        2.3792849272   -1.1341145166   -0.3619670808
N        2.3786506357    1.1332185173    0.3634685494
H       -0.0070708250   -2.1527977344    0.4908235794
H       -2.5226986727   -2.1429111345    0.4758454915
H       -3.7864495625    0.0024076014    0.0022329798
H       -2.5205654565    2.1455053507   -0.4729658403
H       -0.0049795910    2.1532461606   -0.4941084429
H        3.4303678203   -1.1835362600   -0.3393750345
H        1.8635931616   -1.9617002220   -0.7527777549
H        3.4300891617    1.1761990920    0.3439724353
H        1.8646701479    1.9625204157    0.7529453618
18   
Iteration 7 Energy -376.54215576
C        0.1674213635   -0.0015692411   -0.0035778053
C       -0.5516817336   -1.2186439633    0.2554586346
C       -1.9691160265   -1.2085176109    0.2604788722
C       -2.6773718798    0.0022598492    0.0005926294
C       -1.9664271913    1.2114112615   -0.2596215919
C       -0.5489710447    1.2184972951   -0.2563584472
C        1.6741949840   -0.0027315666    0.0017306218
N        2.3798602495   -1.1350148162   -0.3608061661
N        2.3771004513    1.1320829306    0.3612931845
H       -0.0087751674   -2.1546662127    0.4909323376
H       -2.5242703399   -2.1427822207    0.4736170190
H       -3.7859584587    0.0036989801    0.0015994283
H       -2.5197082917    2.1472986840   -0.4704948362
H       -0.0043181727    2.1538078800   -0.4905024769
H        3.4312291939   -1.1765138503   -0.3366884328
H        1.8684093285   -1.9662548175   -0.7494256584
H        3.4284127153    1.1762450567    0.3403358295
H        1.8629897296    1.9625564628    0.7479962737
18   
Iteration 8 Energy -376.54215741
C        0.1678633002   -0.0010448483   -0.0028932406
C       -0.5512731217   -1.2181861060    0.2558869789
C       -1.9687593531   -1.2082013980    0.2609410627
C       -2.6779495556    0.0018735967    0.0006005455
C       -1.9669440207    1.2108175227   -0.2602118429
C       -0.5494634120    1.2181738923   -0.2568699155
C        1.6747449545   -0.0016858898    0.0014512339
N        2.3785197662   -1.1346159980   -0.3624940316
N        2.3782308043    1.1324114963    0.3624969431
H       -0.0080844918   -2.1540677953    0.4912172419
H       -2.5235523139   -2.1426112825    0.4743512352
H       -3.7865406382    0.0029018477    0.0014785721
H       -2.5203276698    2.1464962508   -0.4717345154
H       -0.0049810656    2.1534217301   -0.4916878880
H        3.4297214533   -1.1792842786   -0.3370631495
H        1.8650335129   -1.9654154630   -0.7493695306
H        3.4295147215    1.1773854368    0.3408768356
H        1.8639859662    1.9626029692    0.7496543852
18   
Iteration 9 Energy -376.54215770
C        0.1673658998   -0.0006397721   -0.0022600312
C       -0.5512696914   -1.2182127689    0.2561799258
C       -1.9687424806   -1.2087236502    0.2612875222
C       -2.6772440183    0.0016482345    0.0005893704
C       -1.9672380777    1.2110885575   -0.2605874839
C       -0.5497791131    1.2184990384   -0.2570923057
C        1.6743070021   -0.0010948832    0.0011690214
N        2.3778361679   -1.1337445573   -0.3639775942
N        2.3776657499    1.1327159759    0.3633604573
H       -0.0076447333   -2.1538918101    0.4912880380
H       -2.5236016409   -2.1431066369    0.4746918549
H       -3.7858200727    0.0024910247    0.0012904538
H       -2.5209732797    2.1464945043   -0.4724365455
H       -0.0050753165    2.1535639499   -0.4921889840
H        3.4288124184   -1.1823637632   -0.3366435876
H        1.8625993646   -1.9648137220   -0.7478719330
H        3.4289348830    1.1774619552    0.3401146375
H        1.8635480256    1.9633278085    0.7498260758
