18   
Iteration 0 Energy -376.54215770
C        0.1673659000   -0.0006398000   -0.0022600000
C       -0.5512697000   -1.2182128000    0.2561799000
C       -1.9687425000   -1.2087237000    0.2612875000
C       -2.6772440000    0.0016482000    0.0005894000
C       -1.9672381000    1.2110886000   -0.2605875000
C       -0.5497791000    1.2184990000   -0.2570923000
C        1.6743070000   -0.0010949000    0.0011690000
N        2.3778362000   -1.1337446000   -0.3639776000
N        2.3776657000    1.1327160000    0.3633605000
H       -0.0076447000   -2.1538918000    0.4912880000
H       -2.5236016000   -2.1431066000    0.4746919000
H       -3.7858201000    0.0024910000    0.0012905000
H       -2.5209733000    2.1464945000   -0.4724365000
H       -0.0050753000    2.1535639000   -0.4921890000
H        3.4288124000   -1.1823638000   -0.3366436000
H        1.8625994000   -1.9648137000   -0.7478719000
H        3.4289349000    1.1774620000    0.3401146000
H        1.8635480000    1.9633278000    0.7498261000
18   
Iteration 1 Energy -376.54206988
C        0.1676259560    0.0056445855    0.0084643650
C       -0.5491097977   -1.2208746408    0.2264195433
C       -1.9666382749   -1.2140059956    0.2304127890
C       -2.6796868897    0.0001478470    0.0016302647
C       -1.9701441211    1.2157960912   -0.2302560085
C       -0.5526552377    1.2270837771   -0.2256199144
C        1.6744560772    0.0041290985   -0.0103218255
N        2.3732229574   -1.1491698614   -0.3148236151
N        2.3832059137    1.1461857243    0.3131899414
H       -0.0041655294   -2.1624729477    0.4331928924
H       -2.5190757616   -2.1555340873    0.4168897020
H       -3.7882963565   -0.0015455541    0.0011359085
H       -2.5253560080    2.1545917351   -0.4221888916
H       -0.0104442306    2.1679682469   -0.4425313111
H        3.4241056081   -1.1969430413   -0.2830542847
H        1.8563320892   -1.9983794988   -0.6542472908
H        3.4346248214    1.1858950277    0.2886063016
H        1.8727020125    1.9921766605    0.6698559751
18   
Iteration 2 Energy -376.54191644
C        0.1672357278    0.0001527068    0.0175590869
C       -0.5594249645   -1.2266108415    0.2056357188
C       -1.9765447808   -1.2194260036    0.2064806038
C       -2.6811260222    0.0039393271    0.0013456382
C       -1.9721860498    1.2245400551   -0.2040659168
C       -0.5549933913    1.2250466302   -0.1970776774
C        1.6748201456   -0.0032668793   -0.0089278538
N        2.3898329040   -1.1568665093   -0.2734584853
N        2.3805463314    1.1525455618    0.2705858867
H       -0.0225603926   -2.1755716922    0.3979835997
H       -2.5325176921   -2.1630626119    0.3710299935
H       -3.7896801906    0.0054170100   -0.0017831880
H       -2.5238199564    2.1689819271   -0.3782998115
H       -0.0123017004    2.1695548714   -0.3955669194
H        3.4412757487   -1.1861355034   -0.2454961123
H        1.8874200407   -2.0227274590   -0.5901910610
H        3.4315317006    1.1918585183    0.2385790472
H        1.8705244656    2.0124432259    0.5918006499
18   
Iteration 3 Energy -376.54161846
C        0.1674278720    0.0037553729    0.0285132983
C       -0.5559415616   -1.2316955095    0.1737126313
C       -1.9726993489   -1.2240160598    0.1690840429
C       -2.6850641859    0.0001737302   -0.0012320315
C       -1.9717487688    1.2239689530   -0.1686031808
C       -0.5549264796    1.2339600280   -0.1600735699
C        1.6742704819    0.0028598766   -0.0073883342
N        2.3796244145   -1.1692603407   -0.2117186006
N        2.3887119265    1.1669261860    0.2147218213
H       -0.0214900437   -2.1867669002    0.3412495137
H       -2.5259802787   -2.1741213288    0.3016848919
H       -3.7937528712   -0.0004661216   -0.0085092684
H       -2.5245343990    2.1717916402   -0.3182958565
H       -0.0187284434    2.1871930714   -0.3331864463
H        3.4309124237   -1.2005692595   -0.1927477025
H        1.8731941660   -2.0464068615   -0.4872875471
H        3.4395143301    1.1964398167    0.1759237557
H        1.8875924091    2.0471704371    0.4900514803
18   
Iteration 4 Energy -376.54166220
C        0.1678097510    0.0024747600    0.0235765151
C       -0.5572093525   -1.2317893162    0.1688816657
C       -1.9740248777   -1.2245471887    0.1638628115
C       -2.6856319673    0.0007000535   -0.0023474227
C       -1.9745380329    1.2265222481   -0.1641581287
C       -0.5576365554    1.2324627806   -0.1558838935
C        1.6749548217    0.0019240767   -0.0039455067
N        2.3820958084   -1.1708726049   -0.2003974384
N        2.3915187414    1.1667139059    0.2069585638
H       -0.0244839077   -2.1882819133    0.3340148388
H       -2.5272933107   -2.1751667389    0.2928656012
H       -3.7942881610   -0.0003636180   -0.0089938602
H       -2.5268299226    2.1756285106   -0.3077801745
H       -0.0234269348    2.1879323274   -0.3216881083
H        3.4336797406   -1.1978888523   -0.1891125428
H        1.8780829533   -2.0509318077   -0.4711929358
H        3.4423792139    1.1955635916    0.1694901537
H        1.8920406222    2.0509611728    0.4718853443
18   
Iteration 5 Energy -376.54165917
C        0.1657915274    0.0015282442    0.0153315672
C       -0.5613391431   -1.2314034585    0.1626810444
C       -1.9782057979   -1.2261791587    0.1592599900
C       -2.6865965596    0.0013754013   -0.0019598511
C       -1.9727449176    1.2264537735   -0.1583313645
C       -0.5558264781    1.2351564293   -0.1522589150
C        1.6728971476   -0.0019261216   -0.0026108127
N        2.3896572259   -1.1713836044   -0.1875790083
N        2.3877503994    1.1653639362    0.1970450896
H       -0.0301477876   -2.1894555322    0.3233997850
H       -2.5317651040   -2.1769789593    0.2858332744
H       -3.7952552779    0.0028997651   -0.0068224328
H       -2.5246632182    2.1768571671   -0.2942278231
H       -0.0226375032    2.1926764116   -0.3097435692
H        3.4415580826   -1.1900830680   -0.1848655196
H        1.8926637803   -2.0570282799   -0.4529452146
H        3.4388850117    1.1892815596    0.1644425701
H        1.8897509356    2.0541694176    0.4495090881
18   
Iteration 6 Energy -376.54167581
C        0.1670107623    0.0016221884    0.0154861682
C       -0.5578636144   -1.2324840782    0.1631430040
C       -1.9747767462   -1.2247134808    0.1601954256
C       -2.6855725772    0.0014347041   -0.0017071721
C       -1.9744035868    1.2276589264   -0.1603173345
C       -0.5574827840    1.2332836704   -0.1539658772
C        1.6740472478    0.0004406173   -0.0035466112
N        2.3853187297   -1.1720591123   -0.1897827494
N        2.3895740969    1.1669177565    0.1999640701
H       -0.0258201160   -2.1901790267    0.3230832393
H       -2.5281773232   -2.1753769347    0.2882621816
H       -3.7942340198    0.0010656097   -0.0060458196
H       -2.5264593593    2.1778234251   -0.2976314064
H       -0.0239081146    2.1901787238   -0.3137189023
H        3.4370857025   -1.1947629852   -0.1862659400
H        1.8844549690   -2.0552470388   -0.4561751390
H        3.4407651664    1.1911270944    0.1696639953
H        1.8913737480    2.0547515857    0.4554050663
18   
Iteration 7 Energy -376.54167396
C        0.1682566215    0.0027562894    0.0159295961
C       -0.5584708522   -1.2304000669    0.1633502747
C       -1.9753981261   -1.2252038799    0.1611474111
C       -2.6865974459    0.0005907004   -0.0011394487
C       -1.9741739955    1.2259392682   -0.1610355982
C       -0.5572181128    1.2335767875   -0.1551827827
C        1.6755210414    0.0012147211   -0.0039210197
N        2.3841418078   -1.1725351095   -0.1912158634
N        2.3923749347    1.1666968659    0.2016072293
H       -0.0260767087   -2.1878984389    0.3229860851
H       -2.5278958885   -2.1762930620    0.2900923264
H       -3.7952694409    0.0004912681   -0.0054330937
H       -2.5264890658    2.1757696229   -0.2994827047
H       -0.0243900815    2.1905038526   -0.3171153305
H        3.4358693017   -1.1964838678   -0.1871532598
H        1.8817821210   -2.0542047738   -0.4598107394
H        3.4435710222    1.1938678677    0.1734034954
H        1.8930485937    2.0532809108    0.4589140734
18   
Iteration 8 Energy -376.54167727
C        0.1673711348    0.0017734555    0.0155265265
C       -0.5581838735   -1.2320259222    0.1632129314
C       -1.9750564946   -1.2246775914    0.1609710011
C       -2.6858400504    0.0014610590   -0.0009717078
C       -1.9738639731    1.2270716315   -0.1606974061
C       -0.5569446853    1.2334453982   -0.1549372169
C        1.6745619993    0.0002990855   -0.0039032183
N        2.3854537055   -1.1722420422   -0.1904516913
N        2.3902152161    1.1665663414    0.2007440195
H       -0.0261911517   -2.1898149527    0.3227023252
H       -2.5283274085   -2.1753198762    0.2897857268
H       -3.7945083776    0.0014656559   -0.0050245309
H       -2.5258932560    2.1771388509   -0.2987038630
H       -0.0233900188    2.1900595307   -0.3164142844
H        3.4372354105   -1.1946335269   -0.1871495917
H        1.8845783794   -2.0547154745   -0.4591829928
H        3.4414500193    1.1926067523    0.1728617067
H        1.8908953359    2.0533317408    0.4575535764
18   
Iteration 9 Energy -376.54167733
C        0.1675205284    0.0021577138    0.0151803863
C       -0.5579111746   -1.2316562173    0.1630356937
C       -1.9747995515   -1.2249539919    0.1609201951
C       -2.6854991998    0.0012381111   -0.0009600174
C       -1.9739347172    1.2270879395   -0.1607736641
C       -0.5570106106    1.2336977768   -0.1550956458
C        1.6746814810    0.0007691700   -0.0038664063
N        2.3850956483   -1.1721947871   -0.1899545431
N        2.3904331679    1.1669802350    0.2006838794
H       -0.0256339048   -2.1893079291    0.3223591226
H       -2.5278831210   -2.1757088363    0.2897516993
H       -3.7941630494    0.0010928704   -0.0049073877
H       -2.5262000032    2.1770325490   -0.2987057697
H       -0.0236584654    2.1904193607   -0.3166150460
H        3.4368721328   -1.1951293344   -0.1875291535
H        1.8838109638   -2.0542322550   -0.4594132026
H        3.4417421101    1.1905908461    0.1736102411
H        1.8921610177    2.0541794916    0.4581354442
