18   
Iteration 0 Energy -376.54167428
C        0.1549037000    0.0197502000   -0.0173354000
C       -0.5782072000   -0.3964314000   -1.1834547000
C       -1.9949636000   -0.4004283000   -1.1643819000
C       -2.6985559000   -0.0035545000    0.0113634000
C       -1.9788808000    0.4013511000    1.1744033000
C       -0.5619704000    0.4146240000    1.1661917000
C        1.6621917000    0.0046827000   -0.0214908000
N        2.3872020000    0.6758125000    0.9479220000
N        2.3641605000   -0.7112807000   -0.9746394000
H       -0.0525966000   -0.6772585000   -2.1166537000
H       -2.5541760000   -0.7091481000   -2.0690175000
H       -3.8071604000   -0.0112799000    0.0216771000
H       -2.5247033000    0.6989903000    2.0908727000
H       -0.0223147000    0.6991239000    2.0900470000
H        3.4389357000    0.6647872000    0.9717063000
H        1.8983838000    1.3220241000    1.6152887000
H        3.4156283000   -0.7214797000   -1.0043998000
H        1.8536670000   -1.3232408000   -1.6576947000
18   
Iteration 1 Energy -376.54192953
C        0.1551002281   -0.0077357546   -0.0040306467
C       -0.5775580698   -0.3781430695   -1.1858189617
C       -1.9943311899   -0.3693316238   -1.1750023832
C       -2.6964918944    0.0040408937    0.0091910174
C       -1.9780762615    0.3745676901    1.1844743774
C       -0.5611115832    0.3746032111    1.1839400234
C        1.6622738003   -0.0161445506   -0.0106968413
N        2.3794623774    0.7199258363    0.9161404211
N        2.3690963944   -0.7511761981   -0.9458853314
H       -0.0501498801   -0.6347868762   -2.1248994470
H       -2.5527656588   -0.6468992704   -2.0901953770
H       -3.8051270848    0.0078635018    0.0154657687
H       -2.5254632828    0.6575357797    2.1046446035
H       -0.0224188183    0.6357277852    2.1152707201
H        3.4314409313    0.7249783941    0.9239979327
H        1.8864799197    1.3930684463    1.5532771577
H        3.4201542243   -0.7454753435   -0.9883736272
H        1.8625348098   -1.3955557564   -1.6014374824
18   
Iteration 2 Energy -376.54207070
C        0.1542523930   -0.0154256736   -0.0042060413
C       -0.5723549898   -0.3599613380   -1.1965339990
C       -1.9892769220   -0.3422811507   -1.1793517360
C       -2.6945329228    0.0083941912    0.0101439268
C       -1.9759054992    0.3511826472    1.1936981818
C       -0.5587895167    0.3460154189    1.1915603392
C        1.6603442933   -0.0165634654   -0.0123752314
N        2.3752396379    0.7569642710    0.8851556158
N        2.3656445533   -0.7832009372   -0.9223082274
H       -0.0424693011   -0.5990887218   -2.1390329870
H       -2.5492219517   -0.5965636692   -2.1002703368
H       -3.8031790059    0.0160905117    0.0143772208
H       -2.5224807022    0.6164946005    2.1195908940
H       -0.0155446967    0.5824122837    2.1270091616
H        3.4270448173    0.7726379552    0.9086701196
H        1.8712936758    1.4445017879    1.4981675186
H        3.4165903818   -0.7748355789   -0.9708013757
H        1.8578710161   -1.4603131452   -1.5436943797
18   
Iteration 3 Energy -376.54211625
C        0.1552966857   -0.0227713924    0.0011499687
C       -0.5728529713   -0.3261813975   -1.2004147931
C       -1.9902426593   -0.3044281320   -1.1957030195
C       -2.6889772097    0.0120582838    0.0070811292
C       -1.9722064578    0.3136105533    1.2034669673
C       -0.5547454693    0.3053056788    1.2067812209
C        1.6609066000   -0.0166170871   -0.0124430242
N        2.3702098630    0.8124929755    0.8377612030
N        2.3621332769   -0.8301993181   -0.8831891102
H       -0.0354472542   -0.5378193972   -2.1451111431
H       -2.5492137047   -0.5249730029   -2.1260393090
H       -3.7974716267    0.0250012582    0.0117078037
H       -2.5213230691    0.5502089063    2.1356451218
H       -0.0076028357    0.5054977638    2.1485532331
H        3.4220685583    0.8303086534    0.8663007592
H        1.8591326094    1.5254072071    1.4156071789
H        3.4127964695   -0.8185004036   -0.9414636743
H        1.8519776886   -1.5524186609   -1.4503949453
18   
Iteration 4 Energy -376.54212588
C        0.1559982369   -0.0142668233   -0.0050340553
C       -0.5699386668   -0.3188559594   -1.2072746895
C       -1.9874175263   -0.2993017511   -1.1910050091
C       -2.6924829254    0.0104023267    0.0098642615
C       -1.9732263970    0.3085450363    1.2052285190
C       -0.5556690359    0.3047490076    1.2021998790
C        1.6623297323   -0.0116710840   -0.0162982380
N        2.3662635142    0.8196496436    0.8350548639
N        2.3638159915   -0.8351377568   -0.8775826113
H       -0.0330561813   -0.5283790898   -2.1528808471
H       -2.5476234802   -0.5195409398   -2.1205391641
H       -3.8010713753    0.0193622285    0.0143466249
H       -2.5201421089    0.5387901939    2.1402892860
H       -0.0054620484    0.5030267889    2.1425799712
H        3.4182822668    0.8221680468    0.8660030239
H        1.8567741680    1.5372369254    1.4089605564
H        3.4146885898   -0.8321380302   -0.9357024987
H        1.8495045014   -1.5585906755   -1.4395258469
18   
Iteration 5 Energy -376.54215248
C        0.1540767589   -0.0108901730   -0.0040241357
C       -0.5701109139   -0.3168634588   -1.2072838727
C       -1.9874628076   -0.3007765685   -1.1939825272
C       -2.6899722349    0.0079679547    0.0085199805
C       -1.9734135816    0.3076529634    1.2051170487
C       -0.5560221308    0.3071556596    1.2045283294
C        1.6609215900   -0.0105797350   -0.0140844621
N        2.3719544885    0.8185411974    0.8334591485
N        2.3583672244   -0.8355264670   -0.8769184906
H       -0.0312404008   -0.5257627055   -2.1519061505
H       -2.5473754935   -0.5225565847   -2.1233713647
H       -3.7985267281    0.0149445710    0.0132922918
H       -2.5222409461    0.5365677673    2.1393886857
H       -0.0061546720    0.5081949097    2.1445265659
H        3.4237935511    0.8217219140    0.8713673688
H        1.8625486765    1.5365467164    1.4067257721
H        3.4092096326   -0.8353625696   -0.9362567733
H        1.8404998608   -1.5548401069   -1.4408324149
18   
Iteration 6 Energy -376.54215367
C        0.1553823885   -0.0108149697   -0.0052836169
C       -0.5720322921   -0.3162876180   -1.2066179553
C       -1.9894457963   -0.3005639422   -1.1936783587
C       -2.6912286814    0.0077609397    0.0093880436
C       -1.9725718234    0.3079504616    1.2046259403
C       -0.5550708467    0.3072056085    1.2028317090
C        1.6622288253   -0.0121510462   -0.0156547740
N        2.3706093531    0.8183150228    0.8329641418
N        2.3603015277   -0.8372797786   -0.8778820668
H       -0.0345733444   -0.5244816045   -2.1521377383
H       -2.5496621065   -0.5221194915   -2.1229546964
H       -3.7997834363    0.0146215443    0.0154249091
H       -2.5202276630    0.5373777779    2.1394546117
H       -0.0049503835    0.5098516626    2.1423025891
H        3.4221680155    0.8230632307    0.8763374362
H        1.8582273512    1.5336769692    1.4067965751
H        3.4112957256   -0.8338323013   -0.9333440005
H        1.8447234225   -1.5561371700   -1.4444793359
18   
Iteration 7 Energy -376.54215694
C        0.1545292467   -0.0096464064   -0.0053263951
C       -0.5714723025   -0.3159457774   -1.2072584568
C       -1.9888501888   -0.3008365884   -1.1942383172
C       -2.6903733823    0.0069470401    0.0091690868
C       -1.9728878506    0.3076999218    1.2049771435
C       -0.5554072000    0.3076904481    1.2032853769
C        1.6612967877   -0.0109720813   -0.0151561337
N        2.3705846472    0.8194334399    0.8326638404
N        2.3589325573   -0.8370564789   -0.8767449637
H       -0.0335022424   -0.5236043346   -2.1526303027
H       -2.5490981655   -0.5224796617   -2.1234755041
H       -3.7989242608    0.0130181204    0.0150014511
H       -2.5210282393    0.5366347309    2.1396469334
H       -0.0053101915    0.5106691257    2.1427098031
H        3.4222037598    0.8199499534    0.8746640309
H        1.8602777004    1.5348210967    1.4083178399
H        3.4098145458   -0.8354718144   -0.9343147022
H        1.8417563236   -1.5546978099   -1.4434257448
18   
Iteration 8 Energy -376.54215739
C        0.1542835682   -0.0083404011   -0.0051383779
C       -0.5715930470   -0.3153808531   -1.2069714233
C       -1.9889910524   -0.3011316186   -1.1940065388
C       -2.6917329338    0.0061699123    0.0087837230
C       -1.9738276785    0.3072996979    1.2041982633
C       -0.5563190069    0.3083668693    1.2033014559
C        1.6611861107   -0.0098955858   -0.0145157900
N        2.3723965783    0.8200909785    0.8319517074
N        2.3580546696   -0.8368014525   -0.8758631108
H       -0.0334891175   -0.5227079991   -2.1523529814
H       -2.5487266691   -0.5233124212   -2.1234122182
H       -3.8003018544    0.0114382947    0.0144374037
H       -2.5221575693    0.5357676333    2.1388579723
H       -0.0069087230    0.5117743408    2.1430309943
H        3.4239929400    0.8171298122    0.8745504528
H        1.8636149182    1.5347639309    1.4097982063
H        3.4088184016   -0.8364827404   -0.9357375195
H        1.8392366582   -1.5525501090   -1.4433876181
