18   
Iteration 0 Energy -376.53881191
C        0.1517158000    0.0593756000    0.0456841000
C       -0.5585108000   -0.8201917000    0.9274011000
C       -1.9768045000   -0.8500795000    0.8823327000
C       -2.6829254000   -0.0129949000   -0.0301512000
C       -1.9720158000    0.8493188000   -0.9156291000
C       -0.5533829000    0.8762528000   -0.8977083000
C        1.6677524000    0.0262471000    0.0272725000
N        2.3371165000   -0.2836087000   -1.1389888000
N        2.3778346000    0.2052349000    1.1965123000
H       -0.0066241000   -1.4803731000    1.6244487000
H       -2.5317098000   -1.5322279000    1.5555522000
H       -3.7906268000   -0.0369118000   -0.0555307000
H       -2.5243132000    1.4974784000   -1.6236303000
H        0.0013622000    1.5483253000   -1.5810830000
H        3.3880803000   -0.2703451000   -1.2186992000
H        1.7828269000   -0.4573387000   -2.0161685000
H        3.4262728000    0.1147976000    1.2524707000
H        1.8628472000    0.4717408000    2.0741740000
18   
Iteration 1 Energy -376.53979126
C        0.1506441044    0.0349587145    0.0320859025
C       -0.5619924659   -0.8091424282    0.9458835343
C       -1.9806854039   -0.8269661577    0.9079468239
C       -2.6827580755   -0.0074554670   -0.0234798736
C       -1.9690029314    0.8276842784   -0.9324836456
C       -0.5501326771    0.8425391031   -0.9223912259
C        1.6668089362    0.0053947313    0.0234673780
N        2.3480976838   -0.2307285448   -1.1530852221
N        2.3681949111    0.1572359649    1.2017532056
H       -0.0124300002   -1.4524874919    1.6602963869
H       -2.5389539341   -1.4845701512    1.6024780620
H       -3.7907450171   -0.0214808599   -0.0429191802
H       -2.5193559496    1.4652566751   -1.6515267139
H        0.0076297138    1.4964257260   -1.6207964727
H        3.3990712649   -0.1942196265   -1.2250843738
H        1.8019562428   -0.3677591494   -2.0418095970
H        3.4178570983    0.0837948555    1.2596440378
H        1.8446320491    0.3845678703    2.0853453877
18   
Iteration 2 Energy -376.54037226
C        0.1547847841    0.0300319941    0.0273321033
C       -0.5643515844   -0.7898702389    0.9584727989
C       -1.9830618441   -0.8061888198    0.9260136337
C       -2.6863203041   -0.0053769755   -0.0209536691
C       -1.9706654163    0.8075367018   -0.9485781291
C       -0.5518167615    0.8176931950   -0.9400589676
C        1.6691130960    0.0070045501    0.0231554649
N        2.3530701026   -0.1838162383   -1.1601961469
N        2.3678540830    0.1171740919    1.2080123628
H       -0.0166950991   -1.4225586057    1.6836970192
H       -2.5407570469   -1.4476151305    1.6359826741
H       -3.7944538590   -0.0167149990   -0.0379754460
H       -2.5198471742    1.4323900744   -1.6796249881
H        0.0042190082    1.4571004054   -1.6530198745
H        3.4036831657   -0.1397036915   -1.2281489108
H        1.8098864141   -0.3018175763   -2.0531548365
H        3.4172089743    0.0417286037    1.2635008864
H        1.8428793671    0.3054570042    2.0995718925
18   
Iteration 3 Energy -376.54107780
C        0.1503882789    0.0210048209    0.0213813988
C       -0.5608448619   -0.7681700713    0.9856582523
C       -1.9788684411   -0.7771207186    0.9539885724
C       -2.6796642864   -0.0021903550   -0.0170437684
C       -1.9660763437    0.7799292741   -0.9730432952
C       -0.5478907850    0.7870216522   -0.9704244807
C        1.6612155477    0.0047275343    0.0205367941
N        2.3520138779   -0.1155374319   -1.1686055104
N        2.3550610147    0.0573992645    1.2127446180
H       -0.0127802510   -1.3839156730    1.7253015921
H       -2.5393721432   -1.3932166814    1.6838386023
H       -3.7879643753   -0.0094413464   -0.0303933040
H       -2.5166388137    1.3847838436   -1.7196783605
H        0.0095281814    1.4051886109   -1.7011050364
H        3.4021719117   -0.0600490852   -1.2289695869
H        1.8146861756   -0.2021828062   -2.0682281106
H        3.4039313671   -0.0198060090    1.2681409329
H        1.8264042147    0.1945293237    2.1110455178
18   
Iteration 4 Energy -376.54113899
C        0.1532664617    0.0295331852    0.0250550361
C       -0.5656694013   -0.7580332761    0.9859629179
C       -1.9836116183   -0.7728471864    0.9561383483
C       -2.6873618427   -0.0034543615   -0.0168358188
C       -1.9729600608    0.7753613435   -0.9746351255
C       -0.5547879680    0.7855795453   -0.9685353461
C        1.6637328261    0.0096975396    0.0191659858
N        2.3607827628   -0.1081653965   -1.1670475283
N        2.3608544935    0.0483510735    1.2103195875
H       -0.0193202478   -1.3748511382    1.7258602352
H       -2.5416343146   -1.3895757432    1.6874112565
H       -3.7956598685   -0.0137481548   -0.0311714750
H       -2.5233329805    1.3753344668   -1.7253557421
H       -0.0012127296    1.4040740444   -1.7017523479
H        3.4115287978   -0.0593119436   -1.2206442634
H        1.8288042830   -0.1928844780   -2.0697897296
H        3.4089844372   -0.0385714469    1.2634063010
H        1.8357575754    0.1870769786    2.1103116990
18   
Iteration 5 Energy -376.54114267
C        0.1546151529    0.0343623808    0.0312535528
C       -0.5668445502   -0.7547777579    0.9892415034
C       -1.9846044463   -0.7722889989    0.9540856256
C       -2.6872494848   -0.0063212265   -0.0223569747
C       -1.9707985894    0.7722922390   -0.9787788204
C       -0.5527362446    0.7856705533   -0.9667787393
C        1.6643699406    0.0128910439    0.0274305037
N        2.3482691303   -0.1034078413   -1.1668478914
N        2.3687570252    0.0450991448    1.2153620706
H       -0.0224994395   -1.3708893578    1.7312073313
H       -2.5437678245   -1.3894704399    1.6841010453
H       -3.7954741168   -0.0195793996   -0.0407573614
H       -2.5195947016    1.3690170498   -1.7332374383
H        0.0018148455    1.4048668889   -1.6986589427
H        3.3987430450   -0.0592426390   -1.2266364330
H        1.8092217921   -0.1861418617   -2.0655956557
H        3.4169075400   -0.0459073817    1.2591605248
H        1.8518351543    0.1881182698    2.1193823336
18   
Iteration 6 Energy -376.54115406
C        0.1529556616    0.0349549168    0.0301986286
C       -0.5664436618   -0.7546797547    0.9891814002
C       -1.9842523815   -0.7728441427    0.9552557857
C       -2.6865285058   -0.0064411700   -0.0211586529
C       -1.9711788562    0.7731858231   -0.9777513484
C       -0.5531582569    0.7874674373   -0.9675832825
C        1.6626945758    0.0122136480    0.0252607825
N        2.3517156310   -0.1039453048   -1.1661182513
N        2.3648092460    0.0438403007    1.2142448841
H       -0.0207066762   -1.3696830547    1.7310501857
H       -2.5430411546   -1.3900315238    1.6855579309
H       -3.7947499559   -0.0197287710   -0.0391186054
H       -2.5210056177    1.3701172025   -1.7312934688
H        0.0011834839    1.4075570578   -1.6988950504
H        3.4023165493   -0.0616472131   -1.2260513516
H        1.8143235581   -0.1878750273   -2.0657201364
H        3.4129483882   -0.0461606443    1.2605876204
H        1.8460693322    0.1883386108    2.1170138980
18   
Iteration 7 Energy -376.54115441
C        0.1520753572    0.0354374854    0.0309363832
C       -0.5660611177   -0.7548243839    0.9902676283
C       -1.9838779574   -0.7720418863    0.9546413422
C       -2.6876166570   -0.0062555924   -0.0212417164
C       -1.9727071878    0.7739696690   -0.9776529738
C       -0.5547085827    0.7878144583   -0.9665047402
C        1.6618212181    0.0117849337    0.0244677996
N        2.3525512681   -0.1036822722   -1.1659371323
N        2.3637426921    0.0420216295    1.2134673170
H       -0.0202986627   -1.3693401688    1.7325455120
H       -2.5426819641   -1.3893333180    1.6848072514
H       -3.7958442202   -0.0202479225   -0.0388757402
H       -2.5224313959    1.3710028787   -1.7311980041
H       -0.0002749056    1.4084558720   -1.6972717800
H        3.4034572379   -0.0628350943   -1.2216703220
H        1.8175285177   -0.1889649729   -2.0668358640
H        3.4119625537   -0.0466159388    1.2606778187
H        1.8448882818    0.1891233715    2.1157563808
