18   
Iteration 0 Energy -376.53604912
C        0.1548164000   -0.0339092000    0.0340636000
C       -0.5617996000   -1.1481402000   -0.5066957000
C       -1.9817379000   -1.1157360000   -0.5214847000
C       -2.6779224000    0.0153179000   -0.0062001000
C       -1.9570211000    1.1278961000    0.5160827000
C       -0.5369113000    1.1195766000    0.5235234000
C        1.6800235000   -0.0266618000   -0.0061891000
N        2.3988983000   -0.8166441000    0.8645246000
N        2.3386761000    0.8343019000   -0.8567394000
H       -0.0174875000   -2.0226356000   -0.9128716000
H       -2.5439412000   -1.9730911000   -0.9400579000
H       -3.7857322000    0.0323383000   -0.0164691000
H       -2.5005979000    2.0071169000    0.9134509000
H        0.0266280000    1.9837386000    0.9254771000
H        3.4519984000   -0.8771374000    0.8526575000
H        1.8807106000   -1.4557659000    1.5212823000
H        3.3892002000    0.9216480000   -0.8917872000
H        1.7763720000    1.4267778000   -1.5206471000
18   
Iteration 1 Energy -376.53506967
C        0.1554598855   -0.0518519168    0.0457787822
C       -0.5670999081   -1.1430058468   -0.5329757552
C       -1.9867325797   -1.1011804871   -0.5513003767
C       -2.6780010141    0.0201164557   -0.0089212412
C       -1.9509954840    1.1152472207    0.5409158428
C       -0.5310156057    1.0974519913    0.5523809647
C        1.6800536396   -0.0427612021   -0.0116918947
N        2.4080639667   -0.7769765830    0.8993680838
N        2.3274277023    0.7983301686   -0.8903230575
H       -0.0272024403   -2.0082945147   -0.9640309068
H       -2.5526747142   -1.9430470749   -0.9954732974
H       -3.7856383435    0.0447170406   -0.0224772825
H       -2.4898377388    1.9894504707    0.9554119365
H        0.0365816234    1.9503928837    0.9722271358
H        3.4618351140   -0.8256148282    0.8958639632
H        1.8955102287   -1.3868900872    1.5875125342
H        3.3766713050    0.8992123538   -0.9274532055
H        1.7575510887    1.3612261290   -1.5732394930
18   
Iteration 2 Energy -376.53457593
C        0.1532582583   -0.0589888210    0.0520392831
C       -0.5691732677   -1.1353938794   -0.5537017820
C       -1.9886791421   -1.0892526998   -0.5746045239
C       -2.6775967389    0.0234053097   -0.0120845563
C       -1.9493232027    1.1055945871    0.5610632225
C       -0.5294308035    1.0840930931    0.5772667069
C        1.6788124004   -0.0480892262   -0.0081952128
N        2.4137067837   -0.7453912288    0.9260319121
N        2.3204767196    0.7668174515   -0.9150646432
H       -0.0300417517   -1.9933701024   -1.0000774651
H       -2.5559334039   -1.9203213084   -1.0370418944
H       -3.7850721511    0.0518336685   -0.0285194705
H       -2.4870778720    1.9736241765    0.9896927229
H        0.0396344329    1.9272853243    1.0144954109
H        3.4679327178   -0.7863086504    0.9244163111
H        1.9059769615   -1.3373909277    1.6332368756
H        3.3693409085    0.8701016552   -0.9589007544
H        1.7465679655    1.3029921489   -1.6160110875
18   
Iteration 3 Energy -376.53403332
C        0.1538996292   -0.0659232437    0.0565570578
C       -0.5725856834   -1.1162678437   -0.5881657374
C       -1.9922869363   -1.0674698260   -0.6107647590
C       -2.6814965128    0.0269178105   -0.0147235536
C       -1.9522002701    1.0871782907    0.5958765309
C       -0.5321737355    1.0586579660    0.6158648345
C        1.6817933582   -0.0508314150   -0.0032044546
N        2.4204174818   -0.6889360375    0.9691706474
N        2.3207845428    0.7135680786   -0.9547082071
H       -0.0352815318   -1.9615078428   -1.0601278754
H       -2.5593298246   -1.8821932036   -1.1016690588
H       -3.7887808159    0.0586124347   -0.0341244210
H       -2.4880783098    1.9433938929    1.0499312211
H        0.0366622806    1.8860839730    1.0823050360
H        3.4752632647   -0.7153130833    0.9643046303
H        1.9203636334   -1.2517888557    1.7053953790
H        3.3697441338    0.8125705013   -1.0093133818
H        1.7448481027    1.2053211297   -1.6861139536
18   
Iteration 4 Energy -376.53434052
C        0.1463405468   -0.0450906654    0.0414583643
C       -0.5622904204   -1.1022937339   -0.6108448814
C       -1.9822005881   -1.0623607315   -0.6239375915
C       -2.6735434247    0.0211524119   -0.0103769879
C       -1.9514941238    1.0776197501    0.6158128639
C       -0.5313883693    1.0656943543    0.6362074563
C        1.6757507216   -0.0307765276   -0.0005589049
N        2.4022934294   -0.6653653710    0.9829674434
N        2.3254854635    0.6897258001   -0.9784236711
H       -0.0175096178   -1.9393518014   -1.0890132686
H       -2.5469661779   -1.8759787620   -1.1192030091
H       -3.7810644467    0.0450741284   -0.0242221978
H       -2.4947112921    1.9203567987    1.0858917851
H        0.0351017796    1.8856825898    1.1187383356
H        3.4566485654   -0.7078588982    0.9983484110
H        1.8860963581   -1.2131174196    1.7194744310
H        3.3762194466    0.7629617446   -1.0418310807
H        1.7565213647    1.1654761710   -1.7258799850
18   
Iteration 5 Energy -376.53461441
C        0.1528852498   -0.0055658799    0.0072242069
C       -0.5543553699   -1.0596068169   -0.6472542780
C       -1.9758303919   -1.0452949731   -0.6420870579
C       -2.6823931944    0.0098784020    0.0030166510
C       -1.9713151479    1.0583334916    0.6540384026
C       -0.5499141592    1.0556258319    0.6574808824
C        1.6868044839    0.0061609603    0.0000432018
N        2.3810643642   -0.6232736452    1.0086138103
N        2.3628342046    0.6408234700   -1.0177349741
H       -0.0043360543   -1.8821259059   -1.1435640119
H       -2.5310662408   -1.8604651496   -1.1456107306
H       -3.7901719011    0.0140559689    0.0008295146
H       -2.5196519293    1.8786355751    1.1569998594
H        0.0071772552    1.8657765010    1.1659260975
H        3.4342815795   -0.6822735529    1.0441734119
H        1.8413179750   -1.1379395789    1.7522785862
H        3.4155182035    0.6616461100   -1.0905008917
H        1.8112397365    1.0954599470   -1.7911054977
18   
Iteration 6 Energy -376.53469151
C        0.1509493342   -0.0020591680    0.0028803283
C       -0.5573255242   -1.0585778489   -0.6485870176
C       -1.9784316732   -1.0484572179   -0.6425364909
C       -2.6828948802    0.0061667448    0.0048295328
C       -1.9663687881    1.0538482664    0.6510127772
C       -0.5453342196    1.0618383851    0.6562827187
C        1.6833014354   -0.0023250550   -0.0033027264
N        2.3774214599   -0.6294286277    1.0064016390
N        2.3639542243    0.6356228903   -1.0153637235
H       -0.0071889010   -1.8785385257   -1.1492029053
H       -2.5332292619   -1.8646619743   -1.1448952066
H       -3.7907383754    0.0109513053    0.0066569248
H       -2.5156996716    1.8728973448    1.1546061449
H        0.0109525668    1.8755943127    1.1603290522
H        3.4313203750   -0.6778263681    1.0331239731
H        1.8431546419   -1.1298340915    1.7635511844
H        3.4168364744    0.6578597413   -1.0830694558
H        1.8155148646    1.1063171075   -1.7812282999
18   
Iteration 7 Energy -376.53468587
C        0.1488479753   -0.0054354459   -0.0040985475
C       -0.5542272780   -1.0671276394   -0.6541655708
C       -1.9747068665   -1.0495080452   -0.6398710771
C       -2.6756694819    0.0058560767    0.0105568130
C       -1.9658222034    1.0591491671    0.6543690534
C       -0.5452853357    1.0602958400    0.6500537231
C        1.6794145631   -0.0103106683   -0.0105981490
N        2.3727964424   -0.6353293080    1.0011407368
N        2.3634256983    0.6348338265   -1.0159141312
H       -0.0058420366   -1.8851925940   -1.1601778983
H       -2.5337206154   -1.8644457472   -1.1395191594
H       -3.7834614746    0.0080148601    0.0150292835
H       -2.5139514946    1.8785570916    1.1588892675
H        0.0149164876    1.8757874881    1.1469757345
H        3.4262603012   -0.6780857987    1.0436481981
H        1.8337486232   -1.1212568038    1.7639976021
H        3.4165307902    0.6664853419   -1.0742253736
H        1.8175564912    1.1169295236   -1.7763782118
18   
Iteration 8 Energy -376.53472797
C        0.1518704345   -0.0002088955   -0.0032700355
C       -0.5553546976   -1.0587064888   -0.6536666745
C       -1.9762697534   -1.0484368878   -0.6419300437
C       -2.6802283855    0.0034309360    0.0108188183
C       -1.9661236186    1.0532545328    0.6560418315
C       -0.5452467909    1.0604722447    0.6545261525
C        1.6831427589   -0.0037161707   -0.0105979256
N        2.3724840954   -0.6319073064    1.0021951035
N        2.3683833131    0.6313230783   -1.0219404084
H       -0.0056747768   -1.8749692353   -1.1608662389
H       -2.5321200963   -1.8641961799   -1.1438144601
H       -3.7880507863    0.0051725762    0.0164754265
H       -2.5149101314    1.8705608378    1.1631464562
H        0.0119926688    1.8756928120    1.1551443813
H        3.4254333435   -0.6792542840    1.0522762679
H        1.8282068961   -1.1158817336    1.7625954303
H        3.4216051412    0.6590994254   -1.0807943865
H        1.8237854168    1.1075735164   -1.7870309440
18   
Iteration 9 Energy -376.53473076
C        0.1512120311    0.0007840197   -0.0024746743
C       -0.5547375148   -1.0568492502   -0.6553833396
C       -1.9756849451   -1.0465973933   -0.6443015978
C       -2.6801701316    0.0043041902    0.0096302285
C       -1.9673501804    1.0531630021    0.6578686804
C       -0.5463798443    1.0596677278    0.6573756047
C        1.6828947969   -0.0017560031   -0.0075003824
N        2.3722035914   -0.6306808478    1.0047088374
N        2.3685176946    0.6260292302   -1.0229575909
H       -0.0042398182   -1.8724950723   -1.1626516928
H       -2.5312913612   -1.8616442499   -1.1476159987
H       -3.7879854566    0.0058352955    0.0143156213
H       -2.5165678181    1.8694831142    1.1661266094
H        0.0106407630    1.8733839282    1.1606277065
H        3.4259868586   -0.6698462501    1.0446033797
H        1.8335151246   -1.1148258062    1.7691606739
H        3.4217968266    0.6523552106   -1.0816684044
H        1.8244635520    1.0986146374   -1.7907586320
18   
Iteration 10 Energy -376.53473678
C        0.1514151263   -0.0001204962   -0.0025927626
C       -0.5550626137   -1.0575749498   -0.6554591940
C       -1.9759417916   -1.0466383599   -0.6441641289
C       -2.6801582676    0.0044553120    0.0097013832
C       -1.9668429837    1.0532485687    0.6573992391
C       -0.5458941846    1.0594276931    0.6566393309
C        1.6829312676   -0.0036262824   -0.0080011144
N        2.3743595470   -0.6323011768    1.0029611085
N        2.3680176670    0.6255583117   -1.0228642909
H       -0.0049746217   -1.8732497906   -1.1631571779
H       -2.5318889731   -1.8615082873   -1.1473878177
H       -3.7879792053    0.0063117639    0.0144932197
H       -2.5157390367    1.8698857754    1.1654801830
H        0.0113417048    1.8734421519    1.1591919601
H        3.4279384479   -0.6712890163    1.0477522023
H        1.8346285397   -1.1126900573    1.7689429972
H        3.4212142878    0.6546037138   -1.0816038267
H        1.8231196818    1.1006832125   -1.7884612631
18   
Iteration 11 Energy -376.53473763
C        0.1521015396   -0.0004180235   -0.0030196309
C       -0.5544645322   -1.0579708271   -0.6557725621
C       -1.9752924601   -1.0472471641   -0.6439435388
C       -2.6789127452    0.0038661761    0.0105411596
C       -1.9657193831    1.0528384670    0.6580511338
C       -0.5447952828    1.0591949849    0.6566315854
C        1.6834144958   -0.0035639839   -0.0099756194
N        2.3725793097   -0.6335778305    1.0017463051
N        2.3689032962    0.6256325007   -1.0247543537
H       -0.0044296726   -1.8734059763   -1.1639271237
H       -2.5314945509   -1.8620095856   -1.1470710322
H       -3.7867289626    0.0056175387    0.0158553558
H       -2.5145762839    1.8693451954    1.1663836796
H        0.0126088953    1.8733029096    1.1588576936
H        3.4259176836   -0.6719727035    1.0512201020
H        1.8305457507   -1.1099146517    1.7685918829
H        3.4221760022    0.6555691660   -1.0814243700
H        1.8247959908    1.1030385434   -1.7894835120
