18   
Iteration 0 Energy -376.53606041
C        0.1526875000    0.0490483000   -0.0394481000
C       -0.5474362000   -0.9422145000   -0.7982886000
C       -1.9670737000   -0.9633877000   -0.7588812000
C       -2.6784705000   -0.0114619000    0.0269919000
C       -1.9737092000    0.9633340000    0.7906863000
C       -0.5537998000    0.9890586000    0.7757292000
C        1.6782908000    0.0270664000   -0.0181478000
N        2.3450522000   -0.4259660000    1.0995448000
N        2.3877390000    0.3826722000   -1.1443907000
H        0.0086190000   -1.6844755000   -1.4031112000
H       -2.5177271000   -1.7282393000   -1.3404062000
H       -3.7860569000   -0.0323157000    0.0481585000
H       -2.5288640000    1.7005869000    1.4027566000
H       -0.0017236000    1.7431639000    1.3694228000
H        3.3968921000   -0.4317809000    1.1793288000
H        1.7885775000   -0.7095524000    1.9469832000
H        3.4394474000    0.3331829000   -1.2069659000
H        1.8649689000    0.7357995000   -1.9869993000
18   
Iteration 1 Energy -376.53506012
C        0.1545335862    0.0728146665   -0.0521877577
C       -0.5444718174   -0.9469350928   -0.7737535096
C       -1.9636908449   -0.9839433102   -0.7304902699
C       -2.6795439883   -0.0180884707    0.0335803987
C       -1.9755890707    0.9780878731    0.7699960267
C       -0.5560646965    1.0196630762    0.7512626011
C        1.6797958588    0.0491763467   -0.0209330745
N        2.3314063236   -0.4742922493    1.0747214861
N        2.3990244349    0.4277865825   -1.1334617267
H        0.0156203341   -1.7024945103   -1.3579594356
H       -2.5085273321   -1.7701283922   -1.2886263730
H       -3.7868147115   -0.0469049176    0.0617585580
H       -2.5343061271    1.7233659425    1.3688552668
H       -0.0092943191    1.7896185792    1.3294255379
H        3.3819440009   -0.5064654941    1.1645268310
H        1.7623722812   -0.7921919895    1.9013637259
H        3.4499536766    0.3601153137   -1.1921542175
H        1.8865589824    0.8161019321   -1.9668949474
18   
Iteration 2 Energy -376.53456679
C        0.1521098589    0.0754069735   -0.0585002117
C       -0.5415928677   -0.9631162274   -0.7576332997
C       -1.9606807628   -0.9970693531   -0.7086825001
C       -2.6778913710   -0.0179334692    0.0370459176
C       -1.9782908834    0.9949111971    0.7541340636
C       -0.5588604859    1.0353624599    0.7291373966
C        1.6782414317    0.0512462370   -0.0215948404
N        2.3264472987   -0.5123769545    1.0559754840
N        2.4015079238    0.4634922975   -1.1192936993
H        0.0187738559   -1.7293915026   -1.3275893087
H       -2.5059957236   -1.7946220426   -1.2498930062
H       -3.7849924829   -0.0496354924    0.0667129238
H       -2.5371649156    1.7500460952    1.3404392660
H       -0.0112811954    1.8159885511    1.2919694634
H        3.3767566291   -0.5515159298    1.1472727635
H        1.7546329075   -0.8535510682    1.8714679200
H        3.4528364863    0.3985229729   -1.1762624295
H        1.8921124067    0.8808699064   -1.9406122922
18   
Iteration 3 Energy -376.53401487
C        0.1518352133    0.0761648264   -0.0618062344
C       -0.5454644583   -0.9852477153   -0.7218028319
C       -1.9648728358   -1.0204382929   -0.6752493918
C       -2.6823219348   -0.0178639789    0.0375737499
C       -1.9811715708    1.0173554814    0.7197861654
C       -0.5615132440    1.0600878460    0.6928634365
C        1.6801422027    0.0464534285   -0.0193059357
N        2.3284329243   -0.5774306174    1.0242880580
N        2.4083001716    0.5211634920   -1.0878085629
H        0.0146973642   -1.7691245484   -1.2673009807
H       -2.5085202202   -1.8359987642   -1.1907660298
H       -3.7893540251   -0.0487422098    0.0690508678
H       -2.5400275346    1.7901712707    1.2825410404
H       -0.0155136181    1.8596841545    1.2299163367
H        3.3798302140   -0.6190510333    1.1034253547
H        1.7611291831   -0.9566070163    1.8262735107
H        3.4604987949    0.4684911012   -1.1446748710
H        1.9004789674    0.9877102543   -1.8833975571
18   
Iteration 4 Energy -376.53431572
C        0.1455390116    0.0500811708   -0.0501984527
C       -0.5426631773   -1.0167429734   -0.7095570953
C       -1.9623187413   -1.0291119207   -0.6628671409
C       -2.6739537659   -0.0121948723    0.0363167781
C       -1.9737600347    1.0316002290    0.7062737256
C       -0.5538957992    1.0615355378    0.6800632375
C        1.6752111508    0.0270207907   -0.0248881034
N        2.3294981618   -0.6005587779    1.0126157973
N        2.3933030115    0.5528300538   -1.0761383714
H        0.0144697164   -1.8074486782   -1.2485871055
H       -2.5140818995   -1.8429087883   -1.1723060179
H       -3.7812316584   -0.0358025700    0.0630518932
H       -2.5295235346    1.8174346644    1.2539290031
H        0.0000295931    1.8667758322    1.2003603064
H        3.3801842540   -0.6395292907    1.1025905644
H        1.7605833955   -0.9926802221    1.8072479226
H        3.4472386106    0.5310132970   -1.1231534544
H        1.8784739709    1.0333483841   -1.8590327936
18   
Iteration 5 Energy -376.53458108
C        0.1504643643    0.0086639873   -0.0148654846
C       -0.5616379754   -1.0478700547   -0.6627769074
C       -1.9829581454   -1.0492592041   -0.6460777408
C       -2.6837366322   -0.0041398755    0.0210994010
C       -1.9651946539    1.0442650754    0.6642831104
C       -0.5438472225    1.0610210484    0.6557115875
C        1.6842019802   -0.0090790216   -0.0267003813
N        2.3599751783   -0.6445363057    0.9908852543
N        2.3777448428    0.6079750528   -1.0432761187
H       -0.0111081989   -1.8544720147   -1.1838241212
H       -2.5380012358   -1.8645365789   -1.1498699591
H       -3.7914321230   -0.0053485337    0.0368901930
H       -2.5138606115    1.8561316985    1.1800686477
H        0.0128947726    1.8790754058    1.1520992771
H        3.4120698012   -0.6694823526    1.0709196563
H        1.8050692664   -1.0711146764    1.7778177221
H        3.4317281281    0.6450685271   -1.0847731595
H        1.8411411118    1.1078585260   -1.7991573468
18   
Iteration 6 Energy -376.53465345
C        0.1495397999   -0.0031758253   -0.0062681501
C       -0.5591055020   -1.0574141786   -0.6615923835
C       -1.9801454270   -1.0415473770   -0.6467320902
C       -2.6863546968    0.0056525166    0.0116154787
C       -1.9734076514    1.0532269693    0.6610052270
C       -0.5521397137    1.0518900133    0.6543401911
C        1.6824835474   -0.0109696369   -0.0115274021
N        2.3770987243   -0.6421176658    0.9954625776
N        2.3673820510    0.6107775040   -1.0303059277
H       -0.0114648933   -1.8703507505   -1.1761898027
H       -2.5375272215   -1.8538867033   -1.1523852843
H       -3.7941636600    0.0064211551    0.0172283407
H       -2.5195319860    1.8695688219    1.1726846820
H        0.0060504061    1.8658100764    1.1556914098
H        3.4312466828   -0.6497799825    1.0466588215
H        1.8431214386   -1.0948176067    1.7822700959
H        3.4203619757    0.6571854284   -1.0827059728
H        1.8209465930    1.0939793816   -1.7897842057
18   
Iteration 7 Energy -376.53469205
C        0.1462212232    0.0032448488   -0.0031462212
C       -0.5557681743   -1.0533928675   -0.6636262225
C       -1.9762548977   -1.0437897803   -0.6520169098
C       -2.6791057951    0.0042673074    0.0079516308
C       -1.9675145885    1.0497213072    0.6627221017
C       -0.5468357540    1.0601270659    0.6651660204
C        1.6768485600   -0.0001315766   -0.0067078810
N        2.3716033516   -0.6324177613    0.9997481369
N        2.3606332545    0.6091311025   -1.0343546568
H       -0.0037332798   -1.8659016879   -1.1744948877
H       -2.5323166822   -1.8562181341   -1.1590249704
H       -3.7869327722    0.0058449770    0.0127517765
H       -2.5183163596    1.8622510495    1.1752223049
H        0.0095961288    1.8711107983    1.1737856336
H        3.4255283477   -0.6517837820    1.0483213438
H        1.8362588527   -1.0936111815    1.7804625030
H        3.4136947412    0.6417141525   -1.0923498628
H        1.8149281088    1.0816428562   -1.8009356068
18   
Iteration 8 Energy -376.53472277
C        0.1508010882    0.0006453825   -0.0051313401
C       -0.5565206463   -1.0551731187   -0.6599608500
C       -1.9773141723   -1.0453021223   -0.6462519739
C       -2.6814433779    0.0034664924    0.0115467980
C       -1.9679898586    1.0505296861    0.6617370108
C       -0.5469794007    1.0568721524    0.6589377481
C        1.6819364824   -0.0002835165   -0.0140633089
N        2.3694108454   -0.6338288835    0.9968125021
N        2.3665508895    0.6179116075   -1.0365111185
H       -0.0066645623   -1.8695026891   -1.1700713747
H       -2.5334953234   -1.8591880137   -1.1508192408
H       -3.7892603412    0.0045416314    0.0178335093
H       -2.5164317880    1.8653891682    1.1731511086
H        0.0100819079    1.8694198528    1.1640314690
H        3.4222505606   -0.6651862927    1.0592628548
H        1.8238179277   -1.0941721377    1.7708224452
H        3.4198938538    0.6498096872   -1.0907261951
H        1.8227518449    1.0959374839   -1.8010777606
18   
Iteration 9 Energy -376.53473368
C        0.1496891054   -0.0024674937   -0.0031147917
C       -0.5580468219   -1.0581086199   -0.6573402836
C       -1.9789295248   -1.0462310066   -0.6457528137
C       -2.6823739682    0.0047736331    0.0092319809
C       -1.9680119340    1.0523767015    0.6576432418
C       -0.5469709011    1.0572309503    0.6563608141
C        1.6813715816   -0.0055211555   -0.0115496178
N        2.3739333908   -0.6370540605    0.9968006588
N        2.3644737063    0.6208449514   -1.0295031598
H       -0.0085755094   -1.8737066259   -1.1658059545
H       -2.5355294688   -1.8601266012   -1.1498489216
H       -3.7901874325    0.0074823215    0.0141175065
H       -2.5160174553    1.8691870679    1.1663984436
H        0.0108175048    1.8704901435    1.1594764515
H        3.4276915436   -0.6627258709    1.0472355579
H        1.8357005097   -1.1028418371    1.7728368924
H        3.4175789529    0.6568721239   -1.0865081144
H        1.8178975730    1.1013188584   -1.7905739205
18   
Iteration 10 Energy -376.53473681
C        0.1496597763   -0.0014330887   -0.0032990657
C       -0.5572590116   -1.0576341857   -0.6577080260
C       -1.9781077793   -1.0462395164   -0.6459565889
C       -2.6814585706    0.0046610799    0.0091913943
C       -1.9679120070    1.0525187862    0.6581002754
C       -0.5469689380    1.0579819676    0.6569435301
C        1.6811445863   -0.0039525490   -0.0108427325
N        2.3741431691   -0.6347226478    0.9977165420
N        2.3642271035    0.6214680821   -1.0293986127
H       -0.0074484838   -1.8731904682   -1.1659106612
H       -2.5345968092   -1.8602564266   -1.1499722310
H       -3.7892741094    0.0069768008    0.0140859733
H       -2.5164193056    1.8688883536    1.1670328808
H        0.0106627127    1.8710508656    1.1605788714
H        3.4278043504   -0.6637964714    1.0476339314
H        1.8354710170   -1.1041303701    1.7712075764
H        3.4173663092    0.6547973057   -1.0868444132
H        1.8180855520    1.0993142609   -1.7924117302
18   
Iteration 11 Energy -376.53473763
C        0.1504632024   -0.0004432932   -0.0038237574
C       -0.5559562283   -1.0575360971   -0.6573809014
C       -1.9768092700   -1.0462364177   -0.6448254283
C       -2.6811251928    0.0042332179    0.0098778058
C       -1.9671109002    1.0522663227    0.6580175810
C       -0.5462178154    1.0588349046    0.6567344285
C        1.6817696804   -0.0023095075   -0.0113681651
N        2.3725653322   -0.6327002931    0.9989494618
N        2.3657507784    0.6236567424   -1.0291522156
H       -0.0061252988   -1.8732366669   -1.1653614919
H       -2.5330299579   -1.8607551240   -1.1482904227
H       -3.7889558385    0.0060373347    0.0151979365
H       -2.5157742360    1.8685459519    1.1669034604
H        0.0112058622    1.8722397271    1.1600922580
H        3.4261024329   -0.6664832320    1.0475614566
H        1.8325404461   -1.1067611076    1.7686294765
H        3.4188913730    0.6543894237   -1.0876512783
H        1.8201683681    1.0992667718   -1.7939340604
