18   
Iteration 0 Energy -376.52437472
C        0.1800000000    0.0000000000   -0.0000000000
C       -0.5260000000   -1.1970000000   -0.2460000000
C       -1.9200000000   -1.1900000000   -0.2470000000
C       -2.6180000000   -0.0000000000    0.0000000000
C       -1.9200000000    1.1900000000    0.2470000000
C       -0.5260000000    1.1970000000    0.2450000000
C        1.6470000000   -0.0000000000   -0.0000000000
N        2.3160000000   -1.0630000000    0.4560000000
N        2.3170000000    1.0630000000   -0.4560000000
H        0.0050000000   -2.1120000000   -0.4840000000
H       -2.4620000000   -2.1060000000   -0.4520000000
H       -3.7020000000   -0.0000000000    0.0000000000
H       -2.4620000000    2.1050000000    0.4520000000
H        0.0050000000    2.1120000000    0.4830000000
H        3.3210000000   -1.1540000000    0.3800000000
H        1.8240000000   -1.8090000000    0.9250000000
H        3.3210000000    1.1540000000   -0.3790000000
H        1.8240000000    1.8090000000   -0.9250000000
18   
Iteration 1 Energy -376.54165632
C        0.1720076386    0.0021361145   -0.0046044428
C       -0.5530500357   -1.2252605369   -0.2197970646
C       -1.9753256120   -1.2200407665   -0.2256636815
C       -2.6881624688    0.0002819044   -0.0014657396
C       -1.9762314562    1.2207920420    0.2246006974
C       -0.5539634693    1.2273979294    0.2192420515
C        1.6871209862    0.0007520490    0.0060672678
N        2.3868319750   -1.1201857428    0.4252502460
N        2.3852286492    1.1185156064   -0.4242129455
H       -0.0060063530   -2.1709574527   -0.4234569852
H       -2.5301391497   -2.1655828478   -0.4091636666
H       -3.8010199441   -0.0001584317   -0.0012736208
H       -2.5320771719    2.1653592824    0.4108255126
H       -0.0079926613    2.1725532746    0.4282987244
H        3.4418252196   -1.1913092194    0.3761913455
H        1.8676578347   -1.9403161971    0.8427281540
H        3.4403883282    1.1902574147   -0.3774019067
H        1.8645597421    1.9347525063   -0.8471598133
18   
Iteration 2 Energy -376.54200039
C        0.1599541916   -0.0015504874   -0.0025694463
C       -0.5475514034   -1.2346462502   -0.2160208335
C       -1.9650788232   -1.2181094477   -0.2199484508
C       -2.6730297334    0.0014078813   -0.0009184249
C       -1.9626520245    1.2194307788    0.2182941538
C       -0.5450642496    1.2323152494    0.2145251849
C        1.6682156551   -0.0029850483    0.0008072417
N        2.3748128735   -1.1173251923    0.4133763406
N        2.3684259075    1.1154313229   -0.4126872272
H       -0.0014236217   -2.1773592896   -0.4177291530
H       -2.5223863486   -2.1585174979   -0.3995155040
H       -3.7820448506    0.0025018397   -0.0006784146
H       -2.5178267111    2.1609349814    0.3988792727
H        0.0032844739    2.1737039318    0.4165027035
H        3.4266601534   -1.1642121083    0.3697821406
H        1.8642842974   -1.9404068806    0.8234110390
H        3.4198057252    1.1722084180   -0.3681189301
H        1.8511643096    1.9364373063   -0.8182613736
18   
Iteration 3 Energy -376.54200428
C        0.1704710545   -0.0006794785   -0.0004153977
C       -0.5553479719   -1.2202679352   -0.2104487875
C       -1.9710257750   -1.2179338753   -0.2152089788
C       -2.6783300874   -0.0004539253    0.0004984183
C       -1.9700971957    1.2166881522    0.2150176869
C       -0.5544001694    1.2195255952    0.2095831919
C        1.6758446771   -0.0006664210   -0.0034983888
N        2.3804716306   -1.1151276861    0.4042364551
N        2.3820712134    1.1151249572   -0.4063635276
H       -0.0136476524   -2.1625540762   -0.4116877685
H       -2.5233106526   -2.1592715929   -0.3924434318
H       -3.7849091075   -0.0001486901    0.0010834906
H       -2.5219911638    2.1581145638    0.3925917778
H       -0.0125946715    2.1621974616    0.4086977157
H        3.4290369133   -1.1637223190    0.3715361936
H        1.8657977565   -1.9344146685    0.8071612831
H        3.4303935499    1.1650410693   -0.3681829594
H        1.8679479298    1.9377492072   -0.8030449446
18   
Iteration 4 Energy -376.54214652
C        0.1684858384    0.0003976072    0.0003492562
C       -0.5495687877   -1.2262019034   -0.2121313259
C       -1.9671348924   -1.2174867744   -0.2159766480
C       -2.6799576208   -0.0009672056    0.0007069465
C       -1.9686560953    1.2165512775    0.2166416854
C       -0.5510979487    1.2263412649    0.2118449912
C        1.6755484319    0.0013750073   -0.0021442100
N        2.3755833764   -1.1181622002    0.4068844639
N        2.3802170552    1.1189131785   -0.4090660578
H       -0.0056899428   -2.1695354410   -0.4137456684
H       -2.5203756618   -2.1600973406   -0.3943115603
H       -3.7885614546   -0.0016777899    0.0010118509
H       -2.5227698013    2.1586289097    0.3951026394
H       -0.0083742311    2.1705925581    0.4121427361
H        3.4258399013   -1.1755214819    0.3743802968
H        1.8564177669   -1.9374111493    0.8100603260
H        3.4305534281    1.1718688089   -0.3720699022
H        1.8651013379    1.9414587141   -0.8106575947
18   
Iteration 5 Energy -376.54212499
C        0.1644326936   -0.0020223320    0.0021007447
C       -0.5530720785   -1.2293814152   -0.2122185588
C       -1.9707512226   -1.2210420352   -0.2179090518
C       -2.6740392512    0.0014708360   -0.0010676410
C       -1.9675346860    1.2220914713    0.2161439923
C       -0.5498276481    1.2278499460    0.2122835168
C        1.6719064049   -0.0035560717    0.0006163283
N        2.3815186150   -1.1185776514    0.4070047113
N        2.3724215274    1.1169025908   -0.4057352920
H       -0.0091479873   -2.1731052923   -0.4137391626
H       -2.5272755792   -2.1620592909   -0.3970437352
H       -3.7829081931    0.0030259219   -0.0019237133
H       -2.5220804982    2.1646053910    0.3935434914
H       -0.0038093948    2.1706067193    0.4127737199
H        3.4328237036   -1.1627128636    0.3709163408
H        1.8718631892   -1.9434014951    0.8122540527
H        3.4233521823    1.1696297367   -0.3710147456
H        1.8555728703    1.9387587568   -0.8079672757
18   
Iteration 6 Energy -376.54215552
C        0.1668308142   -0.0012389140    0.0021878981
C       -0.5521864457   -1.2272134787   -0.2114309097
C       -1.9696756804   -1.2178654799   -0.2165736815
C       -2.6793990025    0.0005819830   -0.0005274558
C       -1.9683840057    1.2182559996    0.2157188021
C       -0.5508832450    1.2261339681    0.2119736676
C        1.6739011787   -0.0017084635   -0.0006454439
N        2.3799565412   -1.1185694706    0.4056945894
N        2.3764724447    1.1177593958   -0.4056101076
H       -0.0091307959   -2.1710784885   -0.4128199786
H       -2.5241252233   -2.1596987138   -0.3955011110
H       -3.7880014800    0.0012792863   -0.0011947566
H       -2.5219384919    2.1609102259    0.3930830038
H       -0.0070159468    2.1697158311    0.4124934080
H        3.4307701481   -1.1659502873    0.3716419470
H        1.8672678840   -1.9414195064    0.8100468624
H        3.4270962302    1.1692840771   -0.3719585099
H        1.8606830102    1.9398248344   -0.8075972382
18   
Iteration 7 Energy -376.54215377
C        0.1671975180    0.0001222296    0.0023457851
C       -0.5501857660   -1.2266990135   -0.2112193634
C       -1.9675943575   -1.2190323309   -0.2161508432
C       -2.6774121367   -0.0007553841    0.0001612188
C       -1.9688599744    1.2182649494    0.2165268531
C       -0.5514688675    1.2268266423    0.2124234289
C        1.6740118530    0.0010240431   -0.0019720381
N        2.3750253701   -1.1189314075    0.4044320291
N        2.3785511637    1.1197900224   -0.4058183465
H       -0.0059199766   -2.1698352076   -0.4123830746
H       -2.5213715481   -2.1612153152   -0.3949379237
H       -3.7859248268   -0.0012282450   -0.0002639047
H       -2.5234897055    2.1601928259    0.3940270706
H       -0.0083474688    2.1707041252    0.4131014866
H        3.4254600729   -1.1737145881    0.3735269679
H        1.8570489069   -1.9387859219    0.8078725638
H        3.4291878449    1.1702175384   -0.3740282125
H        1.8638003265    1.9418918885   -0.8087499610
18   
Iteration 8 Energy -376.54215751
C        0.1667240694   -0.0007669308    0.0027595893
C       -0.5516434401   -1.2270310723   -0.2113274440
C       -1.9691130617   -1.2183253397   -0.2166143990
C       -2.6787467895    0.0001397114   -0.0004448644
C       -1.9687422525    1.2183416282    0.2161459852
C       -0.5512745907    1.2264494916    0.2124883880
C        1.6736804983   -0.0007339389   -0.0010185269
N        2.3782553111   -1.1188554356    0.4045186922
N        2.3767771436    1.1189867906   -0.4045953111
H       -0.0081169533   -2.1706238429   -0.4126350392
H       -2.5233333140   -2.1602419603   -0.3957501405
H       -3.7873270630    0.0004494151   -0.0012279541
H       -2.5227424490    2.1607241693    0.3935050424
H       -0.0076644691    2.1700848580    0.4133462195
H        3.4289621324   -1.1692424162    0.3724704271
H        1.8635914855   -1.9403840271    0.8089767714
H        3.4275203702    1.1692798291   -0.3736062786
H        1.8614511397    1.9405637575   -0.8081098693
18   
Iteration 9 Energy -376.54215799
C        0.1665001710   -0.0009121691    0.0030590889
C       -0.5519872847   -1.2270552609   -0.2114607174
C       -1.9694712535   -1.2181987958   -0.2169142925
C       -2.6790822590    0.0002683809   -0.0005999470
C       -1.9689621035    1.2183599599    0.2163379732
C       -0.5514800081    1.2263215587    0.2128540792
C        1.6734668748   -0.0009297122   -0.0008434239
N        2.3780849344   -1.1192193426    0.4041779720
N        2.3765175321    1.1191429191   -0.4036211024
H       -0.0085386546   -2.1706824743   -0.4128841477
H       -2.5237450641   -2.1600417039   -0.3963472238
H       -3.7876767398    0.0006720566   -0.0015399181
H       -2.5228936808    2.1607825571    0.3937842832
H       -0.0077956006    2.1698635818    0.4140129772
H        3.4289056703   -1.1675176400    0.3720380842
H        1.8643823032   -1.9410223122    0.8093843973
H        3.4273635672    1.1686455856   -0.3741746389
H        1.8613708717    1.9402209831   -0.8084470089
