18   
Iteration 0 Energy -376.54086211
C        0.1676159000   -0.0000556000    0.0003022000
C       -0.5633209000   -1.2404106000    0.0217454000
C       -1.9799435000   -1.2346867000    0.0214529000
C       -2.6917184000    0.0009104000   -0.0000751000
C       -1.9790929000    1.2360181000   -0.0213154000
C       -0.5624616000    1.2408245000   -0.0212277000
C        1.6772224000   -0.0005767000    0.0007166000
N        2.3977968000   -1.1818185000    0.0215180000
N        2.3975758000    1.1807750000   -0.0183999000
H       -0.0410065000   -2.2163460000    0.0386577000
H       -2.5313232000   -2.1949294000    0.0380714000
H       -3.8003997000    0.0012921000   -0.0002604000
H       -2.5298404000    2.1966223000   -0.0379207000
H       -0.0394792000    2.2163993000   -0.0377702000
H        3.4492828000   -1.1941138000    0.0220712000
H        1.9043794000   -2.1071223000    0.0384267000
H        3.4490572000    1.1919795000   -0.0230197000
H        1.9045185000    2.1061819000   -0.0399572000
18   
Iteration 1 Energy -376.54080122
C        0.1686484881   -0.0002556410    0.0113634589
C       -0.5627473614   -1.2404117750   -0.0077058966
C       -1.9794089429   -1.2337500755   -0.0082703544
C       -2.6933634105    0.0006704436    0.0022192980
C       -1.9786433544    1.2346792316    0.0093419841
C       -0.5619838288    1.2405100491    0.0099735823
C        1.6781079605   -0.0007392948   -0.0122367339
N        2.3970029096   -1.1802414766    0.0711867245
N        2.3989189845    1.1791708133   -0.0708889610
H       -0.0408193704   -2.2166177406   -0.0206610039
H       -2.5303249344   -2.1943147439   -0.0186378045
H       -3.8020799351    0.0010249832    0.0013396633
H       -2.5289810799    2.1956266211    0.0127172157
H       -0.0395650520    2.2165312850    0.0112166943
H        3.4484625371   -1.1928879355    0.0727034496
H        1.9027838770   -2.1029193806    0.1370512049
H        3.4503772055    1.1918505271   -0.0750328289
H        1.9053884087    2.1030855298   -0.1226547590
18   
Iteration 2 Energy -376.54087267
C        0.1682627089   -0.0011693214    0.0170247958
C       -0.5628011134   -1.2408048013   -0.0306229771
C       -1.9794163551   -1.2342584943   -0.0330935926
C       -2.6909781771    0.0011153401    0.0018260429
C       -1.9778172298    1.2356545948    0.0343072688
C       -0.5612074445    1.2401650797    0.0358317027
C        1.6776227242   -0.0018608968   -0.0115232773
N        2.3977834491   -1.1769040127    0.1140871198
N        2.3971702440    1.1759018799   -0.1130755586
H       -0.0405271749   -2.2162222080   -0.0673145499
H       -2.5311226603   -2.1938850955   -0.0659838599
H       -3.7996611334    0.0019039598   -0.0006624431
H       -2.5282587731    2.1963141709    0.0566604993
H       -0.0378194048    2.2153641458    0.0602731955
H        3.4492352503   -1.1898268956    0.1088874187
H        1.9041350775   -2.0965229645    0.2168469553
H        3.4486251507    1.1899157871   -0.1155518952
H        1.9025183641    2.0961237879   -0.2048651377
18   
Iteration 3 Energy -376.54113382
C        0.1680611398   -0.0015219201    0.0216369395
C       -0.5614856756   -1.2394022375   -0.0684785357
C       -1.9781883262   -1.2322744014   -0.0732986708
C       -2.6904629063    0.0010043968    0.0009037705
C       -1.9766021381    1.2334780127    0.0744497789
C       -0.5599019637    1.2393256555    0.0769029720
C        1.6769343846   -0.0022600369   -0.0101081240
N        2.3967796210   -1.1682999283    0.1831219990
N        2.3945386746    1.1685591106   -0.1801905096
H       -0.0375235477   -2.2117525752   -0.1440077750
H       -2.5297738161   -2.1900952157   -0.1415132470
H       -3.7991515362    0.0019657644   -0.0034237971
H       -2.5273380128    2.1926541685    0.1291310911
H       -0.0355678449    2.2121593777    0.1425595851
H        3.4480972653   -1.1861950828    0.1658915134
H        1.9014673659   -2.0778853736    0.3491488556
H        3.4460422012    1.1825638283   -0.1777581470
H        1.8992241700    2.0788751041   -0.3420501388
18   
Iteration 4 Energy -376.54145003
C        0.1673311382    0.0014417700    0.0119943116
C       -0.5573432041   -1.2383702595   -0.0840490475
C       -1.9741588621   -1.2334083861   -0.0902442938
C       -2.6848515210    0.0000565202   -0.0022039000
C       -1.9766804559    1.2347338438    0.0902041781
C       -0.5599044906    1.2408142010    0.0922405385
C        1.6757081297    0.0013579901    0.0030465018
N        2.3890624087   -1.1657414890    0.2124493946
N        2.3941965353    1.1653963808   -0.2050265845
H       -0.0283432161   -2.2067807803   -0.1744433479
H       -2.5256265839   -2.1904045969   -0.1705210277
H       -3.7934819120   -0.0007094023   -0.0064708343
H       -2.5298192025    2.1913709768    0.1631324739
H       -0.0332045371    2.2099934265    0.1871079330
H        3.4399826534   -1.1930350160    0.1818512605
H        1.8876198496   -2.0667171199    0.4063633532
H        3.4456581457    1.1863318450   -0.1958529404
H        1.8962943807    2.0642583081   -0.4167568905
18   
Iteration 5 Energy -376.54140291
C        0.1705692333    0.0015816024   -0.0158572411
C       -0.5617173957   -1.2326852741   -0.1179130590
C       -1.9791155941   -1.2217725494   -0.1210142749
C       -2.7005923973    0.0028865159   -0.0049380575
C       -1.9746299412    1.2242407860    0.1188519982
C       -0.5571967277    1.2347700209    0.1174410937
C        1.6780666788   -0.0005749490    0.0196211311
N        2.4010073300   -1.1546615645    0.2623536201
N        2.3880544201    1.1550499123   -0.2504816875
H       -0.0341313468   -2.1979780121   -0.2425603294
H       -2.5296476430   -2.1773701978   -0.2206645518
H       -3.8094427232    0.0046804444   -0.0045644122
H       -2.5232109339    2.1798346945    0.2283215554
H       -0.0253925883    2.1949142281    0.2640261428
H        3.4512916232   -1.1802264596    0.2097778427
H        1.9068716361   -2.0408711495    0.5301154671
H        3.4391572028    1.1816488108   -0.2191483276
H        1.8867985156    2.0269652936   -0.5512604828
18   
Iteration 6 Energy -376.54162017
C        0.1669033620    0.0006771353   -0.0174712227
C       -0.5574532745   -1.2388642058   -0.1155557558
C       -1.9742829761   -1.2326703757   -0.1156875214
C       -2.6810664658    0.0011382373   -0.0015799372
C       -1.9730346721    1.2338922118    0.1146160777
C       -0.5561449765    1.2380661014    0.1104773425
C        1.6740148038    0.0018118000    0.0093233839
N        2.3867702254   -1.1590767711    0.2491902370
N        2.3865449601    1.1609222366   -0.2417483997
H       -0.0257009076   -2.2023038994   -0.2372629142
H       -2.5283518230   -2.1870757850   -0.2086971958
H       -3.7896757433    0.0014291138    0.0011536326
H       -2.5257296281    2.1879822845    0.2183434844
H       -0.0209982255    2.1982653954    0.2434698935
H        3.4374104267   -1.1896328994    0.2091797203
H        1.8854775582   -2.0414152604    0.5166914799
H        3.4375289551    1.1884032293   -0.2078713778
H        1.8858027485    2.0389692231   -0.5246283388
18   
Iteration 7 Energy -376.54162300
C        0.1693280338    0.0030815240   -0.0125505453
C       -0.5536764985   -1.2369207229   -0.1109595072
C       -1.9706178957   -1.2304379169   -0.1100016765
C       -2.6863014570   -0.0013973505    0.0002024790
C       -1.9750067700    1.2300445829    0.1099717964
C       -0.5580544189    1.2393346794    0.1056800878
C        1.6768042593    0.0048713032    0.0047960042
N        2.3802510914   -1.1634497869    0.2368229724
N        2.3962112006    1.1629775100   -0.2328885174
H       -0.0209007469   -2.2005145110   -0.2279756336
H       -2.5215460541   -2.1869011951   -0.1993364644
H       -3.7950102799   -0.0035440568    0.0029517595
H       -2.5284208878    2.1842921557    0.2075226868
H       -0.0277201243    2.2036360523    0.2266519619
H        3.4310944191   -1.2012340522    0.2104047194
H        1.8706631834   -2.0438781092    0.4950079263
H        3.4471642909    1.1951952020   -0.2030706589
H        1.8957060658    2.0453313036   -0.5013495123
18   
Iteration 8 Energy -376.54165481
C        0.1682113951    0.0010610425   -0.0130264802
C       -0.5587251875   -1.2366142262   -0.1129943213
C       -1.9756509338   -1.2303995736   -0.1116137425
C       -2.6870212392    0.0008966101    0.0007221304
C       -1.9748333737    1.2317379010    0.1117075453
C       -0.5578841426    1.2378324937    0.1066473575
C        1.6760020595    0.0002662649    0.0060808538
N        2.3899954086   -1.1619907094    0.2369502867
N        2.3912933555    1.1597572893   -0.2346249105
H       -0.0276514722   -2.2007269076   -0.2327215299
H       -2.5282430199   -2.1858288777   -0.2022725754
H       -3.7956929629    0.0009270817    0.0038910506
H       -2.5268099159    2.1866857277    0.2107840916
H       -0.0257830664    2.2010376403    0.2285042915
H        3.4412807143   -1.1887464490    0.2127950419
H        1.8890941943   -2.0450437716    0.5028837483
H        3.4423105959    1.1889350756   -0.2038716082
H        1.8907201816    2.0405948592   -0.5082909077
18   
Iteration 9 Energy -376.54165799
C        0.1671037577    0.0018494003   -0.0167659548
C       -0.5566029336   -1.2377086731   -0.1178956397
C       -1.9734648579   -1.2307838367   -0.1158339501
C       -2.6845274163    0.0002548530    0.0009129701
C       -1.9732548879    1.2312875073    0.1158547784
C       -0.5564001998    1.2391891457    0.1099974981
C        1.6742048854    0.0018861768    0.0065181761
N        2.3854533846   -1.1614696750    0.2405116823
N        2.3889240434    1.1602991157   -0.2408729038
H       -0.0241969887   -2.2004804291   -0.2424132121
H       -2.5263869651   -2.1857451584   -0.2093206221
H       -3.7931918961   -0.0001089609    0.0050567151
H       -2.5260507194    2.1852463701    0.2196483100
H       -0.0230861841    2.2010776499    0.2378826489
H        3.4368244490   -1.1866403356    0.2194287497
H        1.8845174061   -2.0398606022    0.5216579891
H        3.4400053078    1.1825292254   -0.2068549678
H        1.8917904827    2.0395724063   -0.5262515116
18   
Iteration 10 Energy -376.54166969
C        0.1682639587    0.0014868051   -0.0175565588
C       -0.5568252848   -1.2371803521   -0.1194009094
C       -1.9737292155   -1.2305666169   -0.1170180086
C       -2.6846498592    0.0004273825    0.0012332696
C       -1.9737796265    1.2315779813    0.1171402703
C       -0.5568724076    1.2376517897    0.1108003630
C        1.6753819445    0.0017815342    0.0055983097
N        2.3855830506   -1.1624592404    0.2389033018
N        2.3906892195    1.1599432196   -0.2420403763
H       -0.0246435909   -2.1998432445   -0.2452928961
H       -2.5266954003   -2.1854324692   -0.2113472192
H       -3.7933037959   -0.0000310567    0.0057657908
H       -2.5261953713    2.1856553771    0.2220689228
H       -0.0233947465    2.1992921492    0.2394853969
H        3.4370516406   -1.1891498279    0.2240376655
H        1.8833439792   -2.0375668283    0.5279180708
H        3.4417119772    1.1876167461   -0.2094671640
H        1.8914488006    2.0372130984   -0.5297710745
18   
Iteration 11 Energy -376.54167484
C        0.1680093592    0.0013145830   -0.0154045034
C       -0.5575061182   -1.2370117914   -0.1188401885
C       -1.9743763634   -1.2305277973   -0.1164250751
C       -2.6850657283    0.0006545632    0.0016856345
C       -1.9729812377    1.2312300656    0.1167781963
C       -0.5560612309    1.2384950675    0.1104788949
C        1.6752375376    0.0004151469    0.0041677053
N        2.3868416857   -1.1641784669    0.2325626077
N        2.3908809021    1.1590075023   -0.2402204546
H       -0.0253108800   -2.1997844852   -0.2440480868
H       -2.5273991267   -2.1853577569   -0.2107365488
H       -3.7937327091    0.0008063386    0.0061115754
H       -2.5253080591    2.1854744399    0.2204300400
H       -0.0228445903    2.2006435624    0.2362502754
H        3.4385757956   -1.1875579825    0.2280405676
H        1.8857509728   -2.0380527836    0.5275386955
H        3.4420025120    1.1886273724   -0.2118311413
H        1.8905217032    2.0363270947   -0.5257104593
18   
Iteration 12 Energy -376.54167633
C        0.1687073617    0.0011314492   -0.0148649485
C       -0.5568223008   -1.2369511782   -0.1198991654
C       -1.9737183119   -1.2294898003   -0.1174693276
C       -2.6855694786    0.0009808981    0.0017476616
C       -1.9741060997    1.2317444549    0.1180739117
C       -0.5571468824    1.2372854702    0.1116343535
C        1.6759805508    0.0007057581    0.0034697633
N        2.3867665577   -1.1650952871    0.2293765248
N        2.3918179475    1.1590956379   -0.2412305864
H       -0.0246150609   -2.1996141608   -0.2458906130
H       -2.5266376804   -2.1842619486   -0.2128612644
H       -3.7942406925    0.0004828842    0.0060179433
H       -2.5261868057    2.1860709787    0.2224730297
H       -0.0241176397    2.1994016646    0.2380396854
H        3.4386274215   -1.1852969097    0.2332793380
H        1.8862964548   -2.0362390934    0.5336988937
H        3.4431216812    1.1843185394   -0.2150863082
H        1.8933858015    2.0365253797   -0.5298527604
18   
Iteration 13 Energy -376.54167739
C        0.1686240270    0.0017803504   -0.0159017015
C       -0.5567729830   -1.2364522950   -0.1209842556
C       -1.9736633297   -1.2303448701   -0.1188485070
C       -2.6845691427    0.0005090920    0.0013576576
C       -1.9730455417    1.2311391139    0.1191548208
C       -0.5561186463    1.2381777899    0.1129107449
C        1.6757014683    0.0012666593    0.0041090574
N        2.3857928202   -1.1646888941    0.2315719877
N        2.3914192003    1.1592145089   -0.2431881930
H       -0.0240702126   -2.1986644054   -0.2480291192
H       -2.5265092964   -2.1850913866   -0.2151073536
H       -3.7932336949    0.0003282686    0.0056779539
H       -2.5255369041    2.1850590683    0.2250035441
H       -0.0227955039    2.1998335121    0.2420170932
H        3.4376181201   -1.1869756058    0.2343253358
H        1.8844906086   -2.0341865182    0.5392231607
H        3.4427241116    1.1847130929   -0.2171351550
H        1.8928280831    2.0353970430   -0.5354653881
18   
Iteration 14 Energy -376.54167713
C        0.1682323669    0.0008694540   -0.0157524598
C       -0.5566222580   -1.2376949940   -0.1206307978
C       -1.9734898866   -1.2296632832   -0.1185989231
C       -2.6842518813    0.0013421106    0.0011788993
C       -1.9725767486    1.2318716513    0.1188927135
C       -0.5556698550    1.2378151898    0.1127745008
C        1.6752604736    0.0004089367    0.0044299746
N        2.3868257558   -1.1645865528    0.2321129803
N        2.3901223398    1.1588780015   -0.2428093094
H       -0.0244257011   -2.2002499309   -0.2473761591
H       -2.5269745239   -2.1840387291   -0.2147172656
H       -3.7929187107    0.0013766024    0.0052742755
H       -2.5246350216    2.1860697681    0.2245050871
H       -0.0216193623    2.1990782817    0.2419071638
H        3.4386840524   -1.1857699129    0.2333149126
H        1.8866566293   -2.0351334135    0.5386304746
H        3.4414030269    1.1862896000   -0.2175010907
H        1.8902463273    2.0344130251   -0.5348539491
