18   
Iteration 0 Energy -376.53878148
C        0.1595912000   -0.0295967000    0.0425100000
C       -0.5591471000   -1.1924312000   -0.3885926000
C       -1.9780025000   -1.1635172000   -0.4106325000
C       -2.6756301000    0.0128806000   -0.0090316000
C       -1.9563799000    1.1731863000    0.4027063000
C       -0.5374061000    1.1677901000    0.4107463000
C        1.6754763000   -0.0248722000   -0.0056279000
N        2.3957716000   -0.9540700000    0.7166831000
N        2.3389766000    0.9690248000   -0.6950347000
H       -0.0136368000   -2.0994625000   -0.7143516000
H       -2.5396833000   -2.0564516000   -0.7476763000
H       -3.7836907000    0.0278623000   -0.0225734000
H       -2.5026472000    2.0851640000    0.7131173000
H        0.0240748000    2.0658459000    0.7340340000
H        3.4462816000   -1.0277938000    0.6713001000
H        1.8791892000   -1.6817118000    1.2740062000
H        3.3888959000    1.0595601000   -0.7048497000
H        1.7833996000    1.6544750000   -1.2677534000
18   
Iteration 1 Energy -376.53757116
C        0.1613656140   -0.0450389718    0.0538168646
C       -0.5636957675   -1.1887307971   -0.4162237137
C       -1.9823281025   -1.1507216236   -0.4402780660
C       -2.6767792905    0.0173875062   -0.0101152000
C       -1.9519206801    1.1636737844    0.4296701412
C       -0.5330166096    1.1483802207    0.4399674658
C        1.6764660927   -0.0380104067   -0.0135845278
N        2.4055569908   -0.9203849028    0.7570914137
N        2.3292837703    0.9401018039   -0.7350787458
H       -0.0228745914   -2.0886585307   -0.7684875213
H       -2.5473871482   -2.0311561326   -0.8034763237
H       -3.7847196934    0.0382033398   -0.0263417765
H       -2.4931919508    2.0722456232    0.7583167084
H        0.0321188967    2.0374598047    0.7811487640
H        3.4568870279   -0.9856045785    0.7183741066
H        1.8952875406   -1.6238437156    1.3501160649
H        3.3781668306    1.0418217496   -0.7458258124
H        1.7670373197    1.6003014142   -1.3305190060
18   
Iteration 2 Energy -376.53687783
C        0.1569233097   -0.0490480072    0.0615999442
C       -0.5656433757   -1.1816228002   -0.4382027522
C       -1.9841783962   -1.1419302113   -0.4674371801
C       -2.6736635856    0.0202618322   -0.0147448543
C       -1.9480640880    1.1554343207    0.4519111047
C       -0.5292339851    1.1417973702    0.4687903017
C        1.6737901409   -0.0414795172   -0.0074890860
N        2.4130684104   -0.8903405868    0.7905853284
N        2.3194337962    0.9121741887   -0.7667633413
H       -0.0236416398   -2.0752065445   -0.8045745936
H       -2.5503086095   -2.0129510757   -0.8511349136
H       -3.7813829920    0.0454207688   -0.0344388614
H       -2.4898561356    2.0578364775    0.7962027371
H        0.0375515920    2.0222443786    0.8293342252
H        3.4648912509   -0.9505333990    0.7492835574
H        1.9098132595   -1.5811623247    1.4044648769
H        3.3680383999    1.0175242044   -0.7886648889
H        1.7510364215    1.5455763908   -1.3853944052
18   
Iteration 3 Energy -376.53588666
C        0.1560121429   -0.0558200975    0.0679348542
C       -0.5672939953   -1.1667155813   -0.4754323776
C       -1.9861226651   -1.1196301088   -0.5076127922
C       -2.6778535037    0.0260010288   -0.0192084932
C       -1.9518855558    1.1415648116    0.4903661526
C       -0.5327183490    1.1199843095    0.5113196594
C        1.6772712699   -0.0420547091    0.0010305241
N        2.4265666890   -0.8367841644    0.8436534619
N        2.3150135441    0.8650865615   -0.8189162609
H       -0.0268232209   -2.0512612518   -0.8651095271
H       -2.5522385328   -1.9757998416   -0.9232830039
H       -3.7853076755    0.0539383359   -0.0439495973
H       -2.4914875810    2.0343003535    0.8622924231
H        0.0349884415    1.9863440512    0.9028109770
H        3.4791850819   -0.8896316371    0.8006148204
H        1.9315165139   -1.5067207531    1.4873552123
H        3.3635490230    0.9707316489   -0.8580282202
H        1.7397282132    1.4539303899   -1.4747078636
18   
Iteration 4 Energy -376.53595662
C        0.1562632466   -0.0447041518    0.0535335168
C       -0.5617426709   -1.1592791785   -0.4870645990
C       -1.9811064635   -1.1230874438   -0.5119797268
C       -2.6724489626    0.0181232966   -0.0124626575
C       -1.9494909360    1.1340159069    0.5012684916
C       -0.5299579390    1.1236237313    0.5173319924
C        1.6784832040   -0.0303999144   -0.0072345157
N        2.4038217704   -0.8282085881    0.8522804783
N        2.3263404081    0.8612452172   -0.8361016397
H       -0.0175361785   -2.0393118146   -0.8814279059
H       -2.5450255530   -1.9809125054   -0.9273679940
H       -3.7801129334    0.0412094861   -0.0296582991
H       -2.4929044806    2.0201503590    0.8831792697
H        0.0357107861    1.9893127660    0.9132595880
H        3.4561768767   -0.8946208554    0.8265361641
H        1.8906349493   -1.4853181430    1.4950696153
H        3.3762071788    0.9532605385   -0.8741241056
H        1.7588884188    1.4529437687   -1.4961569912
18   
Iteration 5 Energy -376.53602291
C        0.1577107060   -0.0358152531    0.0347112629
C       -0.5579847127   -1.1502619931   -0.5047902832
C       -1.9780304568   -1.1152973969   -0.5184315948
C       -2.6773214811    0.0158669285   -0.0067271881
C       -1.9566783081    1.1292440528    0.5147326436
C       -0.5364877882    1.1172440282    0.5214516362
C        1.6829642276   -0.0237426196   -0.0074367802
N        2.3992757476   -0.8143023948    0.8647704367
N        2.3383518327    0.8453281426   -0.8521527596
H       -0.0144307681   -2.0268307567   -0.9073919229
H       -2.5400383734   -1.9734210396   -0.9356402831
H       -3.7851654913    0.0319908000   -0.0181038132
H       -2.4996079214    2.0096636081    0.9104129097
H        0.0274407573    1.9808782766    0.9237279403
H        3.4517280250   -0.8862025483    0.8544880333
H        1.8762564861   -1.4587270581    1.5124603283
H        3.3889676168    0.9274957487   -0.8945542442
H        1.7745250137    1.4356224835   -1.5166296829
18   
Iteration 6 Energy -376.53601892
C        0.1543668416   -0.0303638136    0.0332289286
C       -0.5627673327   -1.1437288687   -0.5078253909
C       -1.9828800061   -1.1162989205   -0.5247278226
C       -2.6775627002    0.0149469368   -0.0082394116
C       -1.9565412528    1.1265991507    0.5161463340
C       -0.5363835162    1.1220983589    0.5258367733
C        1.6806121503   -0.0259996424   -0.0013827290
N        2.4047087514   -0.8115127753    0.8685936720
N        2.3377452722    0.8330318329   -0.8539320657
H       -0.0174426196   -2.0178606113   -0.9132605977
H       -2.5438445078   -1.9741088982   -0.9441409176
H       -3.7853405513    0.0323612309   -0.0184667982
H       -2.5015590937    2.0043628763    0.9146907834
H        0.0260106035    1.9858987502    0.9301881328
H        3.4577689575   -0.8741977126    0.8496958003
H        1.8896399476   -1.4544174842    1.5242031518
H        3.3884122841    0.9149357114   -0.8982578802
H        1.7734407558    1.4218447973   -1.5194454835
18   
Iteration 7 Energy -376.53604419
C        0.1546087952   -0.0339341789    0.0349012818
C       -0.5601819758   -1.1493023966   -0.5060781854
C       -1.9800710734   -1.1155918521   -0.5211318510
C       -2.6765254372    0.0156807956   -0.0068900243
C       -1.9563681899    1.1287039571    0.5153769463
C       -0.5363698824    1.1205664045    0.5236025012
C        1.6798974116   -0.0261352146   -0.0048154123
N        2.4001234008   -0.8150107588    0.8658290518
N        2.3373949640    0.8376864243   -0.8534020846
H       -0.0157495316   -2.0242014200   -0.9113556329
H       -2.5424010727   -1.9728894826   -0.9395992866
H       -3.7843290994    0.0325446415   -0.0178748485
H       -2.5003995333    2.0079983374    0.9119510801
H        0.0272494726    1.9847125478    0.9255575698
H        3.4531530737   -0.8764048051    0.8491705252
H        1.8835320280   -1.4589726425    1.5191990318
H        3.3880066502    0.9230002817   -0.8916574135
H        1.7743977713    1.4273314764   -1.5192832302
18   
Iteration 8 Energy -376.53604218
C        0.1568532984   -0.0338331418    0.0348447309
C       -0.5612126767   -1.1476760960   -0.5048193828
C       -1.9812469512   -1.1165840720   -0.5200099185
C       -2.6780815279    0.0144607783   -0.0056369951
C       -1.9568720741    1.1274694718    0.5154103745
C       -0.5367290998    1.1193100082    0.5224949749
C        1.6818974301   -0.0250895202   -0.0078424660
N        2.3990344286   -0.8164570024    0.8633110891
N        2.3402666678    0.8392785399   -0.8556145020
H       -0.0169598045   -2.0223734202   -0.9105610947
H       -2.5428517701   -1.9745587832   -0.9381396827
H       -3.7859034606    0.0312142639   -0.0157668523
H       -2.5004401603    2.0070590316    0.9119887091
H        0.0262776069    1.9841753195    0.9236221156
H        3.4517827757   -0.8829775517    0.8557142950
H        1.8770552351   -1.4568682009    1.5157560530
H        3.3908555463    0.9255578180   -0.8912303329
H        1.7781736687    1.4310630403   -1.5203003556
18   
Iteration 9 Energy -376.53604865
C        0.1550856202   -0.0336935019    0.0340983437
C       -0.5611090546   -1.1482678285   -0.5064680991
C       -1.9810500491   -1.1159523330   -0.5211515134
C       -2.6774477736    0.0150808002   -0.0060922688
C       -1.9566303980    1.1278736319    0.5159216636
C       -0.5365342507    1.1199479856    0.5233527098
C        1.6802293825   -0.0261005843   -0.0064286505
N        2.3992796674   -0.8159197211    0.8643666959
N        2.3385424435    0.8361677661   -0.8559580850
H       -0.0166600621   -2.0227570359   -0.9124816682
H       -2.5431373151   -1.9734715627   -0.9395390764
H       -3.7852630761    0.0319277463   -0.0163100106
H       -2.5003581163    2.0070712722    0.9131290109
H        0.0269620583    1.9842345352    0.9251118107
H        3.4522578671   -0.8789497090    0.8538655598
H        1.8799216666   -1.4559038206    1.5193472566
H        3.3891098243    0.9226830243   -0.8917532330
H        1.7761878591    1.4279589849   -1.5204322527
18   
Iteration 10 Energy -376.53604912
C        0.1548164254   -0.0339092119    0.0340636188
C       -0.5617996462   -1.1481401943   -0.5066957116
C       -1.9817378910   -1.1157360286   -0.5214847211
C       -2.6779223533    0.0153178602   -0.0062001010
C       -1.9570210900    1.1278961469    0.5160827418
C       -0.5369113279    1.1195766425    0.5235234477
C        1.6800234629   -0.0266617675   -0.0061890852
N        2.3988982995   -0.8166441098    0.8645245555
N        2.3386760811    0.8343019070   -0.8567393514
H       -0.0174875237   -2.0226356317   -0.9128715658
H       -2.5439411937   -1.9730910759   -0.9400578928
H       -3.7857321941    0.0323382907   -0.0164691205
H       -2.5005979271    2.0071168676    0.9134509024
H        0.0266280380    1.9837386455    0.9254770515
H        3.4519983644   -0.8771374025    0.8526575144
H        1.8807106448   -1.4557658614    1.5212822808
H        3.3892001930    0.9216480142   -0.8917872062
H        1.7763720041    1.4267777516   -1.5206471056
